78
Cat138.ts34.5.log	Energy: -1442459.5212440
C          0.20221       -1.91769       -2.36356
H          0.50927       -2.96669       -2.35506
H         -0.73959       -1.72913       -2.88838
C          1.21228       -0.91537       -2.36859
H          2.26526       -1.19729       -2.29043
H          1.06296       -0.01141       -2.96951
H          0.76171        0.13702       -1.19191
Rh         0.30671       -1.16501       -0.34631
O         -2.56395        0.33670       -1.59557
C         -3.05671       -1.89582       -0.23058
C         -2.59003        0.58673        1.09010
O          0.62538       -0.12807        2.77466
C          2.95128       -1.26758        1.97657
C          2.23977        1.42549        1.16407
P          1.49498       -0.28087        1.35464
P         -1.89431       -0.44922       -0.28154
C          0.29251       -2.88116        0.44328
O          0.28326       -3.91736        0.94899
C         -1.77121        1.01286       -2.53885
H         -0.77118        1.24900       -2.14387
H         -1.65676        0.41150       -3.45716
H         -2.26961        1.95858       -2.80217
H         -2.74045       -2.48447        0.64490
H         -2.78694       -2.48652       -1.12013
C         -4.52029       -1.58915       -0.18657
C         -5.20509       -1.17258       -1.33643
H         -4.65865       -1.08777       -2.27732
C         -5.23260       -1.67551        1.01667
H         -4.71418       -2.00373        1.92222
C         -6.55859       -0.85152       -1.28134
H         -7.07542       -0.52958       -2.18895
C         -6.58743       -1.35381        1.07393
H         -7.12400       -1.43134        2.02278
C         -7.25583       -0.93916       -0.07632
H         -8.31828       -0.68765       -0.03525
H         -2.29230        0.07957        2.02072
H         -3.68746        0.54658        1.00460
C         -2.11978        2.00827        1.08230
C         -2.59706        2.91085        0.12083
H         -3.32101        2.55985       -0.61765
C         -1.21122        2.47659        2.03847
H         -0.83613        1.77721        2.78642
C         -2.16371        4.23480        0.10778
H         -2.54736        4.92225       -0.65040
C         -0.78601        3.80432        2.03458
H         -0.08120        4.15140        2.79482
C         -1.25481        4.68854        1.06419
H         -0.91839        5.72779        1.05600
C          1.18388        0.28715        3.99506
H          1.72531       -0.53120        4.49930
H          1.87029        1.14486        3.88010
H          0.35746        0.60059        4.65048
H          2.55431       -2.27561        2.17536
H          3.29828       -0.84718        2.93269
C          4.08583       -1.30589        0.99931
C          5.25736       -0.57813        1.24123
H          5.35844       -0.01892        2.17602
C          3.98610       -2.03094       -0.19632
H          3.07506       -2.59967       -0.39444
C          6.29615       -0.55788        0.31087
H          7.20154        0.01663        0.52048
C          5.01951       -2.00731       -1.12929
H          4.92244       -2.57639       -2.05717
C          6.17621       -1.26641       -0.88306
H          6.98606       -1.25010       -1.61617
H          3.22221        1.44423        1.65969
H          1.56078        2.08760        1.72145
C          2.35044        1.89830       -0.25385
C          1.31777        2.65476       -0.82251
H          0.44886        2.92018       -0.21705
C          3.45129        1.56140       -1.05028
H          4.26118        0.96315       -0.62885
C          1.38720        3.06854       -2.15172
H          0.57308        3.66449       -2.57191
C          3.51866        1.97132       -2.37997
H          4.38591        1.69440       -2.98431
C          2.48656        2.72541       -2.93776
H          2.54115        3.04788       -3.98043
