82
Cat193.ts34.5.log	Energy: -1880198.5577464
C         -0.77209       -2.13088       -3.10259
H         -0.96389       -1.76156       -4.11282
H          0.21767       -2.56348       -2.93634
C         -1.87081       -2.60198       -2.33867
H         -2.88286       -2.52488       -2.74538
H         -1.72313       -3.47381       -1.69114
H         -1.77535       -1.84528       -0.90656
Rh        -1.22464       -0.54211       -1.71147
O          0.86249       -0.81025        1.03662
O          1.73971       -1.89681       -1.09706
O          1.74120        0.65600       -0.78251
O         -3.48074        1.80922       -1.42759
O         -4.08163       -0.10787        0.03664
O         -2.37458        1.42969        0.82971
P         -2.74238        0.64048       -0.60483
P          0.75885       -0.64471       -0.59257
C         -1.01812        0.78138       -3.06292
O         -0.86820        1.59037       -3.86043
C         -0.12773       -1.53582        1.77742
H         -1.12111       -1.19979        1.43269
C          0.05803       -1.15198        3.22809
H         -0.02516       -0.06331        3.34963
H          1.04954       -1.46723        3.58808
H         -0.70831       -1.63641        3.85008
C         -0.00393       -3.02853        1.53901
H         -0.14487       -3.27406        0.47642
H          0.98871       -3.39439        1.84385
H         -0.76808       -3.56686        2.11884
C          3.09638       -1.98914       -0.92101
C          3.67917       -2.00624        0.34836
H          3.04391       -1.93044        1.22991
C          3.89532       -2.07127       -2.06116
H          3.41579       -2.06057       -3.04164
C          5.06332       -2.06883        0.47290
H          5.54469       -2.06028        1.45216
C          5.28015       -2.14532       -1.94005
H          5.92726       -2.20477       -2.81698
C          5.84818       -2.13198       -0.67213
F          7.17471       -2.18527       -0.55196
C          2.88818        1.02845       -0.12147
C          4.04785        1.19859       -0.87622
H          4.01964        0.98518       -1.94538
C          2.88882        1.29958        1.24617
H          1.97067        1.17358        1.81555
C          5.22433        1.61198       -0.25993
H          6.14874        1.73866       -0.82584
C          4.06342        1.71856        1.86428
H          4.09085        1.94361        2.93180
C          5.21880        1.86307        1.10703
F          6.34535        2.25700        1.70245
C         -4.48137        2.68285       -0.85939
H         -4.53570        2.48553        0.22346
C         -5.80988        2.34931       -1.50213
H         -6.07413        1.30103       -1.30597
H         -5.75789        2.50169       -2.59084
H         -6.60473        2.99324       -1.09676
C         -4.02572        4.10677       -1.09078
H         -3.06218        4.29381       -0.59534
H         -3.90746        4.30045       -2.16776
H         -4.76458        4.81524       -0.68772
C         -3.96057       -1.15788        0.90632
C         -3.75107       -0.92403        2.26692
H         -3.68134        0.10508        2.61920
C         -4.06323       -2.46372        0.42504
H         -4.25347       -2.62216       -0.63683
C         -3.61892       -1.99764        3.14289
H         -3.45410       -1.84433        4.21093
C         -3.92590       -3.54085        1.29673
H         -3.99397       -4.57175        0.94499
C         -3.69309       -3.29302        2.64390
F         -3.53178       -4.32097        3.47667
C         -1.28195        2.21333        1.05561
C         -0.91795        2.41384        2.38980
H         -1.50544        1.93098        3.17245
C         -0.55931        2.83962        0.03679
H         -0.84265        2.70393       -1.00675
C          0.16388        3.22775        2.70927
H          0.46193        3.39711        3.74550
C          0.53411        3.64260        0.35407
H          1.12622        4.11892       -0.42868
C          0.88604        3.82677        1.68332
F          1.94226        4.58045        1.98557
