62
Cat120.ts34.5.log	Energy: -1060136.0840513
C         -1.27503       -2.76436       -0.76314
H         -1.12078       -3.56838       -0.03853
H         -2.32553       -2.58212       -1.00921
C         -0.29244       -2.58522       -1.78338
H          0.60971       -3.20377       -1.78043
H         -0.63565       -2.35611       -2.79926
H          0.00092       -0.98747       -1.78578
Rh        -0.11973       -1.05756       -0.16712
O         -2.21175        1.43677       -1.44785
C         -3.57230       -0.26855        0.14419
C         -1.84457        1.88663        1.12358
O          1.74560        1.22901        1.25377
C          3.33984       -0.85340        0.27978
C          2.32994        1.27276       -1.45602
P          1.80359        0.17016       -0.03309
P         -1.87592        0.48721       -0.09918
C          0.18057       -1.71546        1.57706
O          0.37221       -2.08991        2.65165
C         -2.31548        0.81824       -2.69830
H         -1.54864        0.03239       -2.82474
H         -3.31097        0.36083       -2.84988
H         -2.16586        1.58379       -3.47424
H         -3.63412       -0.93349       -0.73739
C         -3.65570       -1.15031        1.38332
H         -4.56014       -1.77860        1.34837
H         -2.78060       -1.81092        1.46920
H         -3.71698       -0.54498        2.30081
C         -4.72013        0.72850        0.05893
H         -4.60197        1.41165       -0.79460
H         -5.68141        0.20031       -0.04996
H         -4.79117        1.33996        0.97225
H         -2.88616        2.23964        1.20327
C         -1.36638        1.39114        2.48428
H         -1.42590        2.20755        3.22210
H         -1.96090        0.55026        2.86785
H         -0.32061        1.06037        2.41461
C         -0.98587        3.04230        0.62299
H         -1.34802        3.42473       -0.34032
H         -1.00854        3.86506        1.35624
H          0.06118        2.72437        0.51498
C          2.67797        1.47476        2.26926
H          3.12654        0.54875        2.66455
H          3.48594        2.15134        1.94119
H          2.13578        1.96337        3.09283
H          3.17360       -1.23048        1.30559
C          3.32490       -2.06014       -0.65493
H          4.18348       -2.71577       -0.44006
H          2.39655       -2.63439       -0.53579
H          3.39934       -1.75430       -1.71211
C          4.69049       -0.14672        0.21637
H          4.77295        0.70580        0.90205
H          5.49071       -0.85683        0.48073
H          4.90810        0.21465       -0.80057
H          3.08952        0.67096       -1.98781
C          1.19242        1.55730       -2.42791
H          1.55008        2.20512       -3.24443
H          0.80231        0.63165       -2.87170
H          0.34803        2.05913       -1.93276
C          2.97500        2.57001       -0.97775
H          3.84514        2.40179       -0.32968
H          3.31692        3.15872       -1.84380
H          2.25199        3.18314       -0.41993
