90
Cat124.ts34.5.log	Energy: -1352939.4130982
C          1.17462       -3.13134        0.72594
H          1.17974       -3.88818       -0.06301
H          2.15184       -2.96652        1.19010
C          0.00534       -3.01885        1.53831
H         -0.86994       -3.63664        1.31748
H          0.13653       -2.84876        2.61321
H         -0.32447       -1.41601        1.58394
Rh         0.14048       -1.38755        0.02403
O          1.70549        1.18838        1.75215
C          3.52011       -0.54298        0.73000
C          2.17110        1.50787       -0.83442
O         -1.35987        0.95446       -1.68382
C         -3.25224       -0.82795       -0.71590
C         -1.87566        1.25756        1.00170
P         -1.62428        0.00086       -0.34219
P          1.83120        0.17183        0.41160
C          0.12608       -1.98415       -1.76859
O          0.10757       -2.32503       -2.87046
C          1.41686        0.62637        2.99983
H          0.57680       -0.08979        2.93632
H          2.28854        0.09761        3.42913
H          1.14133        1.44291        3.68392
H          3.32331       -1.27081        1.54145
C          4.57224        0.43832        1.24323
H          4.18291        1.00884        2.09987
H          4.79852        1.18074        0.45763
C          5.85831       -0.29579        1.61527
H          6.62062        0.42359        1.95696
H          5.65683       -0.96395        2.47252
C          6.39201       -1.12218        0.44948
H          7.29437       -1.67765        0.75306
H          6.70674       -0.43920       -0.36070
C          5.33365       -2.07813       -0.09205
H          5.10088       -2.84013        0.67405
H          5.72152       -2.62635       -0.96600
C          4.05197       -1.33826       -0.46207
H          4.26889       -0.64263       -1.29201
H          3.28156       -2.03493       -0.82866
H          3.22976        1.79587       -0.70179
C          1.31717        2.75712       -0.60292
H          1.47279        3.13445        0.41729
H          0.25503        2.47702       -0.69164
C          1.63679        3.83588       -1.63296
H          0.99375        4.71599       -1.46516
H          2.67682        4.18107       -1.48664
C          1.47623        3.32308       -3.05948
H          1.75046        4.10633       -3.78528
H          0.41168        3.08811       -3.23864
C          2.30465        2.06440       -3.28947
H          3.37876        2.31945       -3.22792
H          2.13690        1.67370       -4.30645
C          1.97512        0.98754       -2.26080
H          0.92361        0.67910       -2.37020
H          2.58161        0.08729       -2.44237
C         -2.28379        1.43507       -2.62198
H         -2.88916        0.62683       -3.06485
H         -2.96169        2.19577       -2.19973
H         -1.70317        1.90326       -3.43070
H         -3.09223       -1.14372       -1.76657
C         -4.53681        0.00400       -0.65253
H         -4.45347        0.92369       -1.24731
H         -4.70929        0.32399        0.38860
C         -5.74212       -0.80701       -1.12386
H         -6.65538       -0.19362       -1.05552
H         -5.61368       -1.05506       -2.19328
C         -5.89977       -2.09392       -0.32409
H         -6.75214       -2.68088       -0.70280
H         -6.13864       -1.84006        0.72487
C         -4.62042       -2.92117       -0.36077
H         -4.44432       -3.27352       -1.39331
H         -4.72675       -3.82526        0.26043
C         -3.40976       -2.11672        0.09855
H         -3.51738       -1.86639        1.16880
H         -2.48548       -2.70645        0.01021
H         -0.82419        1.51037        1.23237
C         -2.47039        0.65025        2.27384
H         -1.93317       -0.27538        2.53802
H         -3.52152        0.36409        2.09790
C         -2.41556        1.64720        3.42747
H         -2.87983        1.21040        4.32660
H         -1.35899        1.84082        3.68331
C         -3.09324        2.96301        3.06150
H         -3.00973        3.68195        3.89257
H         -4.17420        2.78465        2.91358
C         -2.50533        3.55448        1.78520
H         -1.44924        3.82690        1.96179
H         -3.02727        4.48727        1.51648
C         -2.57086        2.56537        0.62386
H         -3.62621        2.38138        0.36395
H         -2.08934        3.00084       -0.26466
