92
Cat114.ts34.5.log	Energy: -1635447.6767165
C         -0.34629       -2.90153       -1.90022
H         -0.46580       -3.83817       -1.35041
H         -1.17162       -2.68149       -2.58471
C          0.97167       -2.47309       -2.24257
H          1.83695       -3.02410       -1.86407
H          1.14022       -2.03080       -3.23089
H          0.95581       -0.87238       -1.84198
Rh         0.14380       -1.33302       -0.52043
C         -1.72053        0.87133       -2.66911
O         -3.13544       -0.74238       -1.14982
O         -1.87927        1.20912        0.08467
C          0.84178        1.11015        2.02122
O          2.86063       -0.42334        1.26031
O          1.99026        1.29663       -0.49022
P          1.44362        0.13204        0.57437
P         -1.63248       -0.00669       -1.04524
C         -0.15144       -2.48047        0.97493
O         -0.31744       -3.18801        1.86631
H         -1.42721        0.04385       -3.34396
C         -3.07786        1.40024       -3.11603
H         -3.02057        1.71113       -4.17190
H         -3.86074        0.63598       -3.02222
H         -3.38319        2.27765       -2.52839
C         -0.62648        1.93381       -2.72057
H          0.33530        1.55694       -2.34094
H         -0.47979        2.27729       -3.75618
H         -0.91072        2.81061       -2.11906
C         -3.48574       -1.77071       -0.31816
C         -3.36029       -1.65249        1.06499
H         -2.97364       -0.72321        1.48829
C         -3.98566       -2.94006       -0.88889
H         -4.07434       -3.00612       -1.97458
C         -3.70496       -2.71642        1.90488
C         -3.48025       -2.60748        3.38387
H         -3.69666       -1.59374        3.75214
H         -4.10265       -3.32014        3.94324
H         -2.42541       -2.82541        3.61954
C         -4.35141       -3.99251       -0.05535
H         -4.74615       -4.91342       -0.49148
C         -4.20760       -3.88684        1.32776
H         -4.48548       -4.72680        1.96936
C         -2.83554        2.18682        0.11491
C         -4.19689        1.88416        0.12929
H         -4.51387        0.84270        0.07128
C         -2.40587        3.51292        0.20259
H         -1.33535        3.72491        0.21688
C         -5.15017        2.90627        0.19673
C         -6.61235        2.56691        0.17120
H         -6.83756        1.71762        0.83347
H         -7.23109        3.42011        0.48247
H         -6.92940        2.27687       -0.84408
C         -3.35118        4.53052        0.27869
H         -3.02094        5.56978        0.34828
C         -4.71327        4.23327        0.26936
H         -5.44766        5.04050        0.32768
H          0.25983        1.90955        1.52895
C         -0.12861        0.26561        2.84190
H         -0.56095        0.88007        3.64652
H         -0.94876       -0.11708        2.22200
H          0.38110       -0.59073        3.31068
C          1.92660        1.71880        2.90424
H          2.59632        2.39567        2.35986
H          1.44939        2.29486        3.71288
H          2.54058        0.93024        3.36182
C          3.60594       -1.41630        0.68592
C          3.96254       -1.37122       -0.66105
H          3.62272       -0.53552       -1.27650
C          4.01719       -2.47465        1.49547
H          3.71479       -2.48850        2.54376
C          4.73428       -2.39370       -1.22563
C          5.08073       -2.34975       -2.68592
H          5.49356       -1.36998       -2.97112
H          5.81717       -3.12135       -2.94996
H          4.18498       -2.51503       -3.30706
C          4.79240       -3.48670        0.93980
H          5.11948       -4.32062        1.56546
C          5.14743       -3.45060       -0.40908
H          5.75299       -4.25493       -0.83430
C          2.71414        2.41636       -0.17892
C          4.07153        2.32420        0.12129
H          4.54740        1.34190        0.13747
C          2.07263        3.65512       -0.21300
H          1.01348        3.69685       -0.47221
C          4.80845        3.47448        0.42543
C          6.26900        3.36421        0.75435
H          6.44050        2.63799        1.56379
H          6.84508        3.01608       -0.11801
H          6.68597        4.33089        1.06878
C          2.80270        4.80084        0.08593
H          2.31034        5.77610        0.06817
C          4.15651        4.71249        0.40909
H          4.71858        5.61889        0.64770
