82
Cat134.ts34.5.log	Energy: -1631213.9877111
C         -0.10495       -3.75462       -1.46280
H         -0.20394       -3.92049       -2.53829
H          0.89865       -3.89594       -1.05314
C         -1.23258       -4.00383       -0.63756
H         -2.18796       -4.28027       -1.09127
H         -1.06788       -4.45162        0.34861
H         -1.40855       -2.67339        0.27663
Rh        -0.92054       -1.80727       -1.01021
O          0.80924       -0.24860        1.56884
O          2.04481       -2.16303        0.41986
O          1.71604        0.14274       -0.71547
O         -4.09531       -0.88629       -1.37088
O         -3.11468       -0.31266        0.92798
O         -2.62303        1.07482       -1.18349
P         -2.68783       -0.50197       -0.67260
P          0.88419       -1.00383        0.10539
C         -0.67725       -1.21053       -2.79961
O         -0.49207       -0.83599       -3.86791
C         -0.10701       -0.70350        2.54242
H         -1.11634       -0.82691        2.11877
H          0.21816       -1.66069        2.98527
H         -0.13990        0.05661        3.33512
C          3.29444       -1.90577        0.92771
C          3.48925       -1.74494        2.29697
H          2.64227       -1.85006        2.97599
C          4.37572       -1.80602        0.05311
H          4.20521       -1.94655       -1.01549
C          4.75812       -1.42921        2.77770
H          4.90148       -1.29025        3.85295
C          5.63422       -1.48575        0.54635
H          6.46953       -1.38216       -0.15149
C          5.84704       -1.27316        1.91446
C          7.19484       -0.85519        2.42579
H          7.29580       -1.04243        3.50441
H          7.35679        0.22371        2.26115
H          8.00768       -1.38752        1.90939
C          2.86580        0.84721       -0.48199
C          3.65687        1.12125       -1.59693
H          3.31852        0.77275       -2.57439
C          3.25112        1.30945        0.77592
H          2.61685        1.10890        1.63720
C          4.85417        1.81341       -1.44476
H          5.46896        2.01536       -2.32654
C          4.45754        1.99022        0.90939
H          4.76109        2.33022        1.90365
C          5.28850        2.24796       -0.18685
C          6.61014        2.93906       -0.01461
H          6.89596        3.49825       -0.91755
H          7.41519        2.21149        0.18599
H          6.59079        3.64358        0.82988
C         -5.14285       -0.01748       -1.77691
H         -5.83103        0.18097       -0.94184
H         -4.74230        0.93344       -2.15364
H         -5.68572       -0.53195       -2.58140
C         -4.32044        0.21129        1.32613
C         -5.32738       -0.65986        1.73846
H         -5.13438       -1.73395        1.72087
C         -4.54127        1.58789        1.32744
H         -3.75287        2.26314        0.99291
C         -6.55726       -0.14983        2.14231
H         -7.34447       -0.84047        2.45743
C         -5.77825        2.08169        1.73463
H         -5.94699        3.16209        1.72627
C         -6.80806        1.22846        2.14778
C         -8.12725        1.77295        2.61373
H         -8.12580        1.93331        3.70502
H         -8.95184        1.08114        2.38791
H         -8.35373        2.74017        2.14233
C         -1.48887        1.84181       -1.05458
C         -0.88400        2.33334       -2.20876
H         -1.29697        2.05945       -3.18109
C         -0.96688        2.15900        0.19792
H         -1.43172        1.75475        1.09805
C          0.23228        3.15618       -2.10199
H          0.70064        3.53875       -3.01299
C          0.15246        2.98255        0.28537
H          0.55988        3.22096        1.27113
C          0.77026        3.50201       -0.85599
C          1.99133        4.36720       -0.75472
H          2.00328        5.13880       -1.53878
H          2.90738        3.76473       -0.86756
H          2.04847        4.86904        0.22164
