102
Cat197.ts34.5.log	Energy: -1639671.3776663
C          0.56853       -1.27795        3.39206
H          0.72113       -2.30904        3.72220
H          1.41262       -0.61049        3.59485
C         -0.75602       -0.74093        3.45694
H         -1.58756       -1.39841        3.72604
H         -0.89265        0.27931        3.83465
H         -0.88595        0.05007        2.04330
Rh        -0.15338       -1.23680        1.37848
O          2.61724        0.96567        1.37110
C          3.12760       -1.53470        0.83205
C          2.01728        0.21786       -1.25926
O         -1.90583       -1.92129       -1.53244
C         -3.46778       -1.31681        0.64460
C         -2.08526        0.58011       -1.09958
P         -1.83007       -0.98703       -0.15783
P          1.81251       -0.24935        0.56510
C          0.14962       -3.09646        1.23847
O          0.39871       -4.22335        1.23702
C          2.05196        2.26055        1.56263
H          1.32656        2.46280        0.75457
C          3.18307        3.26269        1.46517
H          3.69178        3.18123        0.49601
H          3.91887        3.07719        2.26327
H          2.80078        4.28828        1.57747
C          1.32871        2.32672        2.89407
H          0.51335        1.59287        2.92858
H          2.02657        2.11208        3.71793
H          0.90143        3.32852        3.05253
H          3.10778       -1.67049        1.92507
H          2.70500       -2.45547        0.40974
C          4.52000       -1.28008        0.34810
C          5.32504       -0.35016        1.01921
H          4.90796        0.17025        1.88243
C          5.03904       -1.95752       -0.77624
C          4.24611       -3.00551       -1.50689
H          3.30328       -2.61264       -1.91939
H          3.97490       -3.84357       -0.84456
H          4.82402       -3.41753       -2.34527
C          6.61164       -0.05841        0.57978
H          7.21577        0.67999        1.11212
C          6.33669       -1.65078       -1.20444
H          6.74017       -2.17044       -2.07786
C          7.11935       -0.70688       -0.54428
H          8.12713       -0.48585       -0.90393
H          2.51160       -0.65470       -1.71287
H          0.99896        0.24277       -1.66884
C          2.78125        1.46388       -1.61265
C          4.17982        1.42495       -1.66760
H          4.69211        0.48575       -1.46348
C          2.12628        2.67820       -1.91478
C          0.63065        2.79192       -1.94383
H          0.16312        2.49108       -0.99453
H          0.19362        2.16039       -2.73483
H          0.31783        3.82608       -2.14141
C          4.93222        2.55334       -1.97666
H          6.02204        2.48292       -2.00227
C          2.89797        3.80513       -2.22212
H          2.38544        4.74365       -2.45076
C          4.28875        3.75744       -2.24867
H          4.86358        4.65496       -2.48906
C         -1.32418       -3.21816       -1.64152
H         -1.32199       -3.70063       -0.64969
C          0.10252       -3.09640       -2.14042
H          0.68964       -2.48105       -1.44487
H          0.11830       -2.61761       -3.13184
H          0.57958       -4.08489       -2.21612
C         -2.20589       -4.02836       -2.57052
H         -3.21969       -4.13595       -2.15809
H         -2.28149       -3.53441       -3.55131
H         -1.78724       -5.03481       -2.71798
H         -3.44168       -2.40675        0.81642
H         -3.37687       -0.86188        1.63921
C         -4.73364       -0.90619       -0.04721
C         -5.08821       -1.50372       -1.26400
H         -4.40784       -2.23355       -1.70570
C         -5.59267        0.05838        0.52249
C         -5.26867        0.73640        1.82246
H         -4.30716        1.27065        1.77402
H         -5.20446        0.01396        2.65255
H         -6.04216        1.47191        2.08092
C         -6.27342       -1.17443       -1.91647
H         -6.52725       -1.65644       -2.86351
C         -6.78007        0.37545       -0.14745
H         -7.44787        1.12024        0.29406
C         -7.12791       -0.23060       -1.35194
H         -8.06325        0.03760       -1.84889
H         -1.11208        0.76771       -1.57796
H         -2.77603        0.29588       -1.90301
C         -2.57017        1.79970       -0.36856
C         -1.89149        2.26669        0.76385
H         -1.00681        1.72416        1.10181
C         -3.68816        2.52203       -0.84016
C         -4.40485        2.13527       -2.10033
H         -4.78583        1.10474       -2.05962
H         -3.73743        2.20517       -2.97482
H         -5.26197        2.79788       -2.28023
C         -2.32095        3.39137        1.46385
H         -1.77205        3.72433        2.34797
C         -4.10986        3.64675       -0.12179
H         -4.98168        4.19995       -0.48154
C         -3.44761        4.07999        1.02452
H         -3.80519        4.96107        1.56270
