80
Cat18.ts34.5.log	Energy: -1536851.3088538
C         -0.13382       -3.24762       -2.18300
H         -0.77305       -3.15895       -3.06506
H          0.86518       -3.64224       -2.39078
C         -0.74937       -3.54972       -0.93436
H         -1.83925       -3.59701       -0.85456
H         -0.23801       -4.23754       -0.25211
H         -0.10621       -2.46697        0.11845
Rh        -0.20353       -1.38947       -1.09396
C          3.24797       -2.22857       -1.57710
O          2.71950        0.29774       -1.74758
O          2.57426       -0.77751        0.61676
C         -0.08050        0.92256        1.62322
O         -2.06795        1.14482       -0.20929
O         -2.06676       -0.73277        1.59322
P         -1.07760       -0.01937        0.44701
P          2.03817       -1.01968       -0.95371
C         -1.05388       -0.49813       -2.54356
O         -1.57703        0.02854       -3.42009
H          3.07331       -3.18664       -1.06658
H          3.06499       -2.35966       -2.65275
H          4.28631       -1.90888       -1.41750
C          2.12401        1.53016       -1.71450
C          2.39789        2.41297       -0.66946
H          3.05975        2.09901        0.13989
C          1.26875        1.91765       -2.74498
H          1.05279        1.21358       -3.54914
C          1.82843        3.68471       -0.67342
H          2.05179        4.37101        0.14821
C          0.70256        3.18845       -2.73199
H          0.02566        3.47599       -3.54105
C          0.97650        4.09929       -1.70358
C          0.39039        5.48219       -1.71968
H          0.96699        6.15018       -2.38103
H          0.39394        5.93222       -0.71618
H         -0.64638        5.47778       -2.08888
C          3.85431       -0.74226        1.09340
C          4.90456       -0.09144        0.44202
H          4.72995        0.39634       -0.51721
C          4.08670       -1.36402        2.32352
H          3.25373       -1.86714        2.81862
C          6.17147       -0.07791        1.02609
H          6.98569        0.43265        0.50419
C          5.35381       -1.33325        2.89219
H          5.51695       -1.82440        3.85591
C          6.42475       -0.69063        2.25574
C          7.78768       -0.65931        2.88468
H          8.52724       -0.19386        2.21815
H          8.14261       -1.67371        3.12588
H          7.78084       -0.08748        3.82687
H          0.46308        1.69845        1.06617
H         -0.71090        1.37845        2.39871
H          0.65197        0.23462        2.06573
C         -2.56778        2.21048        0.49570
C         -2.02665        3.47370        0.26614
H         -1.20169        3.56571       -0.44155
C         -3.61391        2.04989        1.40344
H         -4.02752        1.05622        1.58080
C         -2.53750        4.57626        0.94373
H         -2.10584        5.56389        0.75703
C         -4.11066        3.16425        2.07576
H         -4.92938        3.03208        2.78868
C         -3.58846        4.44498        1.85991
C         -4.15723        5.64317        2.56369
H         -3.39278        6.41753        2.72394
H         -4.57998        5.37345        3.54240
H         -4.96785        6.10239        1.97306
C         -2.89710       -1.76889        1.27019
C         -2.87544       -2.90491        2.07665
H         -2.19579       -2.92915        2.93052
C         -3.74635       -1.71565        0.16297
H         -3.75391       -0.82764       -0.47137
C         -3.70038       -3.98465        1.77405
H         -3.67148       -4.87339        2.41075
C         -4.55857       -2.80811       -0.13001
H         -5.21201       -2.76145       -1.00568
C         -4.55411       -3.96109        0.66462
C         -5.45737       -5.11963        0.35429
H         -5.03669       -6.06801        0.71898
H         -5.63040       -5.21720       -0.72746
H         -6.44364       -4.99416        0.83214
