70
Cat137.ts34.5.log	Energy: -2685895.0391899
C          1.42044       -4.06847        0.35874
H          2.22203       -4.23712        1.08124
H          0.47896       -4.58873        0.54958
C          1.75183       -3.69224       -0.95761
H          2.80644       -3.59730       -1.23415
H          1.09248       -4.00319       -1.77444
H          1.41360       -2.18917       -1.30159
Rh         1.06064       -1.89702        0.27288
O         -1.41526       -0.80582       -1.82594
O         -2.21304       -2.55395       -0.29347
O         -1.67369       -0.24125        0.69155
O          3.34374       -0.04090        1.69091
O          4.11120       -1.00472       -0.59620
O          2.72799        1.02800       -0.52101
P          2.77639       -0.48087        0.23094
P         -1.04770       -1.38012       -0.33252
C          0.75212       -1.74406        2.12541
O          0.54881       -1.61078        3.24416
C         -0.57851        0.13895       -2.46165
H          0.48471       -0.09251       -2.28527
H         -0.78828        0.09084       -3.53862
H         -0.78391        1.15691       -2.09576
C         -3.55570       -2.30092       -0.45098
C         -4.10614       -2.16380       -1.72412
H         -3.46219       -2.27516       -2.59647
C         -4.35593       -2.17236        0.68285
H         -3.90335       -2.29193        1.66846
C         -5.45398       -1.84696       -1.86144
H         -5.89857       -1.72013       -2.84979
C         -5.70198       -1.85024        0.55032
H         -6.33321       -1.71749        1.42992
C         -6.24104       -1.67437       -0.72337
Cl        -7.90716       -1.23291       -0.89408
C         -2.80769        0.51858        0.72818
C         -3.26033        0.87735        1.99954
H         -2.71287        0.51309        2.87107
C         -3.47946        0.97481       -0.40691
H         -3.13254        0.68989       -1.39792
C         -4.39135        1.67293        2.14266
H         -4.75308        1.95374        3.13306
C         -4.61586        1.76421       -0.26353
H         -5.15538        2.11405       -1.14462
C         -5.07151        2.10947        1.00661
Cl        -6.48933        3.09045        1.17627
C          4.09961        1.11384        2.02157
H          5.17588        0.88990        1.99143
H          3.88749        1.94550        1.33443
H          3.81639        1.40383        3.04265
C          5.35948       -0.44651       -0.50372
C          6.31229       -1.06643        0.30468
H          6.03500       -1.96797        0.85375
C          5.68470        0.70395       -1.22241
H          4.92475        1.17119       -1.84836
C          7.59094       -0.52809        0.41050
H          8.34502       -1.00103        1.04152
C          6.96245        1.24536       -1.11798
H          7.23133        2.14666       -1.67112
C          7.90900        0.62998       -0.29914
Cl         9.49776        1.30679       -0.16681
C          1.65994        1.86993       -0.46452
C          0.75561        1.87945        0.60022
H          0.89360        1.20921        1.44886
C          1.48248        2.75055       -1.53533
H          2.20389        2.73617       -2.35441
C         -0.34534        2.73197        0.56876
H         -1.07082        2.72556        1.38273
C          0.39062        3.61098       -1.56213
H          0.24039        4.29342       -2.40020
C         -0.53411        3.58336       -0.51618
Cl        -1.93365        4.60218       -0.57338
