116
Cat161.ts34.5.log	Energy: -2066269.7781429
C          0.43328       -3.40766       -0.92351
H          0.00010       -3.83552       -1.83129
H          1.50326       -3.59132       -0.78801
C         -0.38301       -3.28374        0.23203
H         -1.43797       -3.57843        0.20599
H          0.09313       -3.45697        1.20495
H         -0.33330       -1.74539        0.72901
Rh        -0.17685       -1.34060       -0.83188
O          1.35887        0.86858        1.19640
C          2.77787       -1.48795        0.74823
C          2.80717        0.80339       -1.08093
O         -2.56228        0.84330       -1.73284
C         -3.60280       -1.06902       -0.09508
C         -1.82827        1.00769        1.01142
P         -2.06953       -0.09237       -0.45587
P          1.67961       -0.21105       -0.01081
C         -0.20571       -1.14715       -2.69799
O         -0.20478       -1.02364       -3.84601
C          2.38421        1.56081        1.87901
H          2.12389        1.53618        2.95046
H          3.34930        1.03735        1.76338
C          2.51338        2.99705        1.40975
H          2.64291        3.00514        0.31596
H          1.56828        3.52282        1.62128
C          3.67804        3.72245        2.06546
H          4.61139        3.17220        1.84963
H          3.56109        3.69499        3.16414
C          3.81893        5.16311        1.60121
H          3.97283        5.21178        0.51116
H          2.91218        5.74627        1.83058
H          4.67025        5.66893        2.08219
C          3.50052       -2.31820       -0.13403
O          3.44477       -1.95294       -1.42938
C          3.98383       -2.77644       -2.41958
H          3.73847       -2.30554       -3.37973
H          5.08182       -2.86212       -2.33214
H          3.54274       -3.78823       -2.39158
C          2.75771       -1.85662        2.10530
O          1.99379       -1.11174        2.93992
C          2.13625       -1.26483        4.31995
H          1.51687       -0.48506        4.78327
H          3.18409       -1.12928        4.64193
H          1.78471       -2.25159        4.67256
C          3.49077       -2.96074        2.56735
H          3.48360       -3.22602        3.62385
C          4.22328       -3.42746        0.31261
H          4.78251       -4.04764       -0.38727
C          4.21951       -3.73193        1.67056
H          4.78367       -4.59394        2.03401
C          2.18227        1.59380       -2.07033
O          0.84796        1.67894       -2.00077
C          0.10730        2.17857       -3.08323
H         -0.94347        2.00193       -2.82220
H          0.28648        3.25822       -3.23221
H          0.34960        1.63820       -4.01288
C          4.21456        0.83717       -1.02009
O          4.79863        0.20704        0.01875
C          6.17271       -0.04141        0.00895
H          6.37382       -0.69587        0.86728
H          6.76376        0.88558        0.11713
H          6.48677       -0.55739       -0.91510
C          4.96889        1.52139       -1.98156
H          6.05723        1.52771       -1.93298
C          2.92918        2.27410       -3.04261
H          2.42980        2.85352       -3.81800
C          4.31553        2.21945       -2.99161
H          4.90352        2.75197       -3.74333
C         -3.91837        1.07858       -2.07086
H         -3.91516        1.29051       -3.15325
H         -4.50176        0.15630       -1.92303
C         -4.54886        2.22614       -1.30425
H         -5.64703        2.11779       -1.35692
H         -4.28907        2.11172       -0.23864
C         -4.14370        3.60127       -1.81514
H         -4.60691        3.77167       -2.80358
H         -3.05672        3.60249       -1.98045
C         -4.51989        4.72579       -0.86596
H         -5.60680        4.75272       -0.68342
H         -4.02860        4.59022        0.11128
H         -4.22543        5.71204       -1.25766
C         -4.49561       -0.84741        0.97245
O         -4.43252        0.35027        1.57795
C         -5.02162        0.53667        2.83129
H         -4.68095        1.51658        3.19000
H         -6.12458        0.53687        2.77481
H         -4.69852       -0.23826        3.54756
C         -3.80551       -2.22681       -0.87693
O         -3.09089       -2.29087       -2.00958
C         -2.94831       -3.50331       -2.69277
H         -2.19232       -3.33086       -3.46923
H         -3.89197       -3.81652       -3.17279
H         -2.60035       -4.30797       -2.02272
C         -4.72306       -3.21571       -0.50092
H         -4.84528       -4.11879       -1.09818
C         -5.42046       -1.82722        1.35652
H         -6.08697       -1.65933        2.20195
C         -5.50713       -3.00879        0.62825
H         -6.23009       -3.77165        0.92764
C         -1.68270        0.37609        2.26203
O         -1.98660       -0.94014        2.28455
C         -1.57418       -1.73586        3.35747
H         -1.85064       -2.76647        3.10014
H         -0.48285       -1.67349        3.49572
H         -2.08291       -1.46087        4.29863
C         -1.47895        2.36633        0.93526
O         -1.51013        2.95566       -0.27705
C         -0.90796        4.20733       -0.43801
H         -0.96040        4.44285       -1.50838
H          0.14947        4.18862       -0.12727
H         -1.43936        5.00159        0.11529
C         -1.09508        3.07609        2.08342
H         -0.86100        4.13750        2.01944
C         -1.26461        1.06361        3.40205
H         -1.16276        0.54863        4.35674
C         -0.98888        2.42239        3.30241
H         -0.67487        2.98000        4.18817
