108
Cat168.ts34.5.log	Energy: -1688966.5270811
C          0.96713       -1.09533       -3.77827
H          1.02140       -0.41690       -4.63407
H          1.88976       -1.65784       -3.60230
C         -0.28218       -1.73627       -3.50821
H         -1.16384       -1.46905       -4.09810
H         -0.27268       -2.79427       -3.22099
H         -0.43938       -1.57941       -1.90392
Rh         0.13645       -0.07398       -2.09105
O          1.31719       -0.66044        1.02147
C          3.02782       -1.78908       -0.82612
C          2.92652        1.16232       -0.38422
O         -1.97272        2.00734       -0.33224
C         -3.26042       -0.00441       -1.68364
C         -1.87176       -0.24241        0.89389
P         -1.68768        0.43847       -0.80863
P          1.83422       -0.36150       -0.53269
C          0.43940        1.58688       -2.93878
O          0.70987        2.56032       -3.49563
C          2.12255       -1.10862        2.10473
H          2.32686       -2.18887        1.98013
H          3.08512       -0.57856        2.11328
C          1.38162       -0.87860        3.40469
H          2.10437       -0.98034        4.23281
H          1.05075        0.17357        3.42181
C          0.20157       -1.81589        3.61894
H          0.57893       -2.84409        3.76061
H         -0.40623       -1.85157        2.70378
C         -0.67976       -1.42344        4.79193
H         -0.11563       -1.40270        5.73883
H         -1.10717       -0.41789        4.64418
H         -1.51880       -2.12491        4.91522
H          2.65331       -2.59193       -0.17304
H          2.81089       -2.11144       -1.85449
C          4.49937       -1.58567       -0.63632
C          5.12637       -1.98518        0.54958
H          4.53157       -2.47235        1.32497
C          5.27673       -0.98470       -1.65139
C          4.68269       -0.63198       -2.98632
H          3.72086       -0.10243       -2.90714
H          4.48977       -1.54195       -3.57948
H          5.36775       -0.00087       -3.56878
C          6.48504       -1.77318        0.76332
H          6.94616       -2.09310        1.70051
C          6.63781       -0.76270       -1.41465
H          7.23689       -0.28630       -2.19562
C          7.24446       -1.14401       -0.21960
H          8.30959       -0.95817       -0.06359
H          3.79059        0.98884       -1.04009
H          2.32352        1.95296       -0.85111
C          3.39044        1.57964        0.97627
C          4.70359        1.31653        1.38301
H          5.38846        0.83242        0.68340
C          2.50824        2.23389        1.86155
C          1.12064        2.60829        1.43316
H          0.53887        3.01721        2.27046
H          0.56704        1.75303        1.02277
H          1.14732        3.37684        0.64257
C          5.13960        1.64073        2.66445
H          6.16608        1.41503        2.96296
C          2.96294        2.55169        3.14549
H          2.27897        3.05021        3.83819
C          4.25974        2.24984        3.55634
H          4.58485        2.50421        4.56805
C         -1.68498        3.10830       -1.17052
H         -0.59488        3.27755       -1.19376
H         -2.00478        2.90675       -2.20846
C         -2.39823        4.33170       -0.63441
H         -2.18493        5.17277       -1.31690
H         -3.48869        4.16404       -0.68661
C         -2.00520        4.70028        0.78885
H         -0.92123        4.90670        0.82088
H         -2.16404        3.82206        1.43555
C         -2.77391        5.89411        1.32990
H         -2.61221        6.79177        0.71125
H         -3.85818        5.69713        1.34401
H         -2.46887        6.14055        2.35819
H         -3.28897        0.71025       -2.52458
H         -3.04874       -0.98044       -2.13915
C         -4.55675       -0.00507       -0.92816
C         -5.03959        1.18620       -0.37040
H         -4.43843        2.09127       -0.46753
C         -5.31925       -1.18563       -0.79363
C         -4.86506       -2.49083       -1.38009
H         -3.88478       -2.79643       -0.98326
H         -4.77503       -2.43224       -2.47720
H         -5.57951       -3.29171       -1.14724
C         -6.25270        1.23045        0.31162
H         -6.60559        2.17308        0.73667
C         -6.53512       -1.12199       -0.10337
H         -7.12613       -2.03595        0.00154
C         -7.00692        0.06760        0.44567
H         -7.96132        0.08394        0.97731
H         -0.88501       -0.07549        1.35551
H         -2.59465        0.42333        1.38067
C         -2.26940       -1.68432        1.03103
C         -1.49567       -2.68860        0.43432
H         -0.60344       -2.39449       -0.12109
C         -3.37949       -2.05445        1.82069
C         -4.19125       -1.03766        2.56787
H         -4.61184       -0.27250        1.89962
H         -3.57722       -0.51798        3.32161
H         -5.02901       -1.51667        3.09215
C         -1.82550       -4.03554        0.56020
H         -1.20459       -4.79619        0.08077
C         -3.69726       -3.41284        1.93476
H         -4.56138       -3.69869        2.54073
C         -2.94177       -4.40052        1.30753
H         -3.21818       -5.45208        1.41579
