56
Cat146.ts34.5.log	Energy: -1010855.2584060
C          3.92135        0.31547       -0.47134
H          4.39173       -0.50859       -1.01416
H          4.01594        1.28803       -0.96435
C          3.93239        0.27167        0.95788
H          4.32695       -0.61204        1.46675
H          4.12981        1.19914        1.50656
H          2.38809        0.67446        1.36711
Rh         1.94340       -0.25379        0.10897
O         -0.21721        2.30453        0.15901
C          1.68871        2.81457       -1.73208
C         -0.37269        0.93515       -2.21625
O         -1.16943       -1.03540        0.48323
C          0.32302       -2.67520        2.08705
C         -0.22125        0.02336        2.82746
P          0.23012       -0.99004        1.37832
P          0.77544        1.46336       -0.88826
C          1.90443       -1.81395       -0.96591
O          1.80768       -2.75650       -1.62447
C         -1.14779        3.28984       -0.23932
H         -1.03536        4.13513        0.46228
H         -0.91446        3.68208       -1.24544
C         -2.57895        2.78369       -0.20100
H         -3.24082        3.62643       -0.47103
H         -2.72121        2.01736       -0.98191
C         -2.98559        2.20946        1.14729
H         -2.78432        2.95458        1.93757
H         -2.32807        1.35384        1.36101
C         -4.44172        1.77857        1.20507
H         -5.12188        2.62732        1.02769
H         -4.66446        1.01650        0.44118
H         -4.69861        1.34869        2.18554
H          2.31238        2.36123       -2.51697
H          1.03292        3.56818       -2.19462
H          2.35283        3.30664       -1.00677
H         -0.94007        1.75964       -2.67558
H          0.22700        0.43410       -2.99050
H         -1.05605        0.19347       -1.77952
C         -2.40669       -1.55560        0.91922
H         -2.27132       -2.54876        1.38562
H         -2.86051       -0.89046        1.67658
C         -3.31386       -1.67583       -0.28703
H         -4.31540       -1.98802        0.05714
H         -3.43639       -0.67131       -0.72872
C         -2.79105       -2.64020       -1.34247
H         -2.72121       -3.65168       -0.90385
H         -1.75883       -2.35366       -1.60167
C         -3.65027       -2.67854       -2.59494
H         -4.68536       -2.98125       -2.36711
H         -3.69642       -1.68749       -3.07496
H         -3.25194       -3.38683       -3.33680
H         -0.53589       -2.94038        2.72248
H          0.41752       -3.39808        1.26356
H          1.24304       -2.72602        2.68691
H         -0.34831        1.05793        2.47937
H         -1.13455       -0.32912        3.33080
H          0.61837       -0.00613        3.53747
