88
Cat102.ts34.5.log	Energy: -1446699.0895363
C         -1.04586       -0.42242       -2.82979
H         -0.95678       -1.32333       -3.44214
H         -2.06229       -0.03101       -2.73101
C          0.04640        0.47214       -2.76861
H          0.97930        0.25056       -3.29428
H         -0.16647        1.54169       -2.66246
H          0.43964        0.69560       -1.10633
Rh        -0.05390       -0.83492       -0.94177
C         -1.40145        0.51505        2.19018
C         -2.05593        1.89191       -0.28956
C         -3.39492       -0.56383        0.40022
C          2.47216       -2.63439        0.84009
C          3.37553       -0.55958       -0.87114
C          2.09800        0.26011        1.55421
P          1.92617       -0.96299        0.19399
P         -1.72940        0.21548        0.37137
C         -0.27083       -2.68517       -1.16236
O         -0.38691       -3.82568       -1.31687
H         -0.41184        1.00211        2.18363
C         -2.39635        1.41043        2.91234
H         -2.03881        1.61621        3.93483
H         -2.53590        2.37632        2.40511
H         -3.37912        0.92276        2.99981
C         -1.25361       -0.83320        2.88091
H         -0.54922       -1.47994        2.34039
H         -0.88040       -0.69756        3.90820
H         -2.22113       -1.35782        2.93596
C         -1.21298        2.95295        0.07913
H         -0.45498        2.80456        0.85074
C         -2.99624        2.10753       -1.30249
H         -3.66218        1.29296       -1.60041
C         -1.32952        4.18967       -0.54393
H         -0.67562        5.01191       -0.24158
C         -3.11602        3.34572       -1.94815
C         -4.12147        3.52565       -3.04857
H         -3.83860        2.94076       -3.93898
H         -5.11943        3.17842       -2.73954
H         -4.20503        4.57851       -3.35241
C         -2.27323        4.38746       -1.55322
H         -2.35533        5.36271       -2.04054
C         -4.57055        0.13737        0.70199
H         -4.53839        1.21402        0.88023
C         -3.47342       -1.93755        0.15241
H         -2.55612       -2.47257       -0.10427
C         -5.78814       -0.53776        0.75183
H         -6.70457        0.01319        0.97857
C         -4.68595       -2.63216        0.21016
C         -4.73313       -4.11234       -0.03697
H         -5.58652       -4.38791       -0.67488
H         -3.81198       -4.46488       -0.52209
H         -4.84313       -4.66708        0.90966
C         -5.84562       -1.90912        0.51093
H         -6.80892       -2.42614        0.54880
H          2.50156       -3.18299       -0.11917
C          3.87050       -2.67421        1.44424
H          4.13835       -3.71369        1.69358
H          4.62755       -2.29144        0.74595
H          3.94051       -2.08450        2.37041
C          1.43278       -3.32620        1.71548
H          0.42433       -3.24717        1.28829
H          1.67808       -4.39592        1.80680
H          1.39985       -2.91319        2.73415
C          3.36421       -1.04636       -2.18240
H          2.48198       -1.58897       -2.53608
C          4.49001        0.15587       -0.41933
H          4.51041        0.53192        0.60698
C          4.45753       -0.82551       -3.01674
H          4.44921       -1.21394       -4.03825
C          5.58606        0.40337       -1.25259
C          6.75695        1.20721       -0.76489
H          6.77981        1.25947        0.33286
H          7.71097        0.77958       -1.10799
H          6.71026        2.24180       -1.14387
C          5.55591       -0.10238       -2.55787
H          6.40567        0.07556       -3.22322
C          2.12245       -0.07150        2.91041
H          2.14273       -1.11322        3.22747
C          2.06136        1.61791        1.19684
H          2.02489        1.88718        0.13682
C          2.09323        0.93422        3.87909
H          2.09934        0.66283        4.93760
C          2.04430        2.63438        2.15118
C          2.00220        4.07884        1.74330
H          1.93577        4.18534        0.65154
H          1.13594        4.59344        2.18890
H          2.90384        4.61457        2.08076
C          2.05073        2.27218        3.50726
H          2.02150        3.05098        4.27440
