102
Cat182.ts34.5.log	Energy: -1451548.5083214
C          1.00451       -3.12656        1.08799
H          0.88153       -3.95182        0.38144
H          2.01839       -3.02679        1.48754
C         -0.09733       -2.80581        1.94018
H         -1.04634       -3.33576        1.81356
H          0.11247       -2.56834        2.99010
H         -0.21664       -1.21822        1.84505
Rh         0.12211       -1.35921        0.25628
O          2.22744        1.01143        1.77144
C          3.60373       -0.84814        0.55080
C          2.11911        1.34008       -0.92407
O         -1.25992        1.36094       -0.95934
C         -3.02847       -0.82107       -1.15500
C         -2.47908        0.64658        1.42694
P         -1.68956       -0.01526       -0.12525
P          1.98743        0.05483        0.41502
C          0.08080       -2.04338       -1.49506
O          0.04610       -2.43407       -2.58190
C          1.16822        1.42545        2.61258
H          0.42552        0.60409        2.66080
C          0.48650        2.66369        2.05506
H          0.05726        2.45798        1.06334
H          1.20656        3.49126        1.96000
H         -0.32886        2.99354        2.71778
C          1.75279        1.64553        3.99301
H          2.23489        0.72584        4.35464
H          2.51212        2.44253        3.96648
H          0.96833        1.93612        4.70809
H          3.41317       -1.40486        1.49009
C          4.86669       -0.02082        0.78493
H          4.68341        0.74025        1.55731
H          5.13165        0.51394       -0.14265
C          6.03041       -0.92940        1.17338
H          6.94476       -0.33226        1.32512
H          5.80670       -1.40649        2.14503
C          6.27023       -2.00961        0.12316
H          7.08255       -2.68375        0.44091
H          6.61409       -1.53001       -0.81165
C          5.00052       -2.80434       -0.16699
H          4.72191       -3.38837        0.72925
H          5.18174       -3.53781       -0.96959
C          3.83771       -1.89051       -0.54302
H          4.07392       -1.38239       -1.49286
H          2.92072       -2.47219       -0.71998
H          1.08978        1.74309       -0.91290
C          2.32865        0.74333       -2.31584
H          1.62727       -0.08654       -2.49048
H          3.34574        0.32095       -2.38822
C          2.16530        1.81332       -3.39155
H          2.34636        1.37950       -4.38858
H          1.11720        2.16128       -3.39014
C          3.08910        3.00251       -3.15149
H          2.92063        3.78149       -3.91332
H          4.13754        2.67355       -3.27217
C          2.90957        3.57580       -1.74948
H          1.89978        4.01598       -1.66047
H          3.62084        4.40059       -1.57816
C          3.08355        2.50070       -0.68074
H          4.12286        2.13718       -0.71210
H          2.93321        2.91601        0.32573
C         -2.02643        2.30449       -1.70538
H         -3.05388        2.34869       -1.30956
C         -2.06916        1.90514       -3.16927
H         -2.56658        0.93647       -3.31260
H         -1.04703        1.82287       -3.56742
H         -2.61410        2.65742       -3.75935
C         -1.38085        3.66214       -1.50615
H         -1.36035        3.93682       -0.44160
H         -0.34382        3.64924       -1.87261
H         -1.93344        4.43888       -2.05539
H         -2.53511       -0.84414       -2.14622
C         -4.38658       -0.12882       -1.30861
H         -4.28106        0.92512       -1.59770
H         -4.90550       -0.13323       -0.33475
C         -5.25547       -0.84864       -2.33902
H         -6.23065       -0.34192       -2.42529
H         -4.77414       -0.76567       -3.33061
C         -5.44561       -2.31989       -1.99356
H         -6.02919       -2.82693       -2.77904
H         -6.04040       -2.39811       -1.06515
C         -4.10458       -3.01341       -1.78597
H         -3.55388       -3.04894       -2.74317
H         -4.25599       -4.06032       -1.47679
C         -3.25079       -2.28673       -0.75323
H         -3.75545       -2.32773        0.22681
H         -2.27957       -2.78533       -0.62150
H         -1.57842        0.90431        2.00961
C         -3.20683       -0.44862        2.20971
H         -2.57947       -1.35124        2.27028
H         -4.12718       -0.73703        1.67353
C         -3.58288        0.03742        3.60555
H         -4.12410       -0.75429        4.14856
H         -2.65904        0.23398        4.17935
C         -4.41995        1.30950        3.54104
H         -4.65551        1.66992        4.55547
H         -5.38873        1.07970        3.06086
C         -3.71177        2.39691        2.74206
H         -2.79741        2.70444        3.28131
H         -4.34424        3.29654        2.66854
C         -3.32220        1.91892        1.34416
H         -4.23627        1.73818        0.75478
H         -2.75911        2.71256        0.83330
