78
Cat145.ts34.5.log	Energy: -1691436.6623892
C          0.34366       -1.98114       -2.33098
H          0.66899       -3.02458       -2.34056
H         -0.56878       -1.79013       -2.90436
C          1.33360       -0.96387       -2.24152
H          2.38588       -1.23107       -2.11734
H          1.19861       -0.04196       -2.81781
H          0.80760        0.03668       -1.04679
Rh         0.31693       -1.30301       -0.28369
O         -2.49182        0.25996       -1.61295
C         -3.04894       -2.03873       -0.38416
C         -2.65250        0.38125        1.06893
O          0.45035       -0.41093        2.89562
C          2.82229       -1.51884        2.18023
C          2.16005        1.21003        1.45900
P          1.40328       -0.50093        1.52452
P         -1.88636       -0.59354       -0.30902
C          0.25670       -3.05091        0.43007
O          0.21697       -4.10794        0.88803
C         -1.65128        0.94483       -2.50768
H         -0.67693        1.18509       -2.05524
H         -1.48030        0.35146       -3.42225
H         -2.14236        1.88780       -2.79312
H         -2.73278       -2.59188       -1.28258
H         -2.77973       -2.66737        0.47916
C         -4.51336       -1.73248       -0.40385
C         -5.29389       -1.88683        0.74892
H         -4.83092       -2.26775        1.66339
C         -5.13538       -1.24790       -1.56316
H         -4.54072       -1.10756       -2.46707
C         -6.65034       -1.56960        0.75628
H         -7.26348       -1.69208        1.65088
C         -6.48902       -0.92711       -1.57363
H         -6.98097       -0.55122       -2.47267
C         -7.23163       -1.09096       -0.41017
F         -8.52928       -0.78544       -0.41589
H         -3.74403        0.34858        0.92480
H         -2.40656       -0.16667        1.99139
C         -2.18114        1.80044        1.14987
C         -1.33111        2.22610        2.17684
H         -0.99621        1.49571        2.91393
C         -2.59997        2.74767        0.20386
H         -3.27708        2.43482       -0.59342
C         -0.90451        3.55005        2.26508
H         -0.24880        3.89041        3.06899
C         -2.17444        4.07179        0.27037
H         -2.50017        4.81500       -0.45987
C         -1.32949        4.45878        1.30443
F         -0.92631        5.72649        1.37921
C          0.94014       -0.07249        4.16899
H          1.44439       -0.92456        4.65521
H          1.63876        0.78266        4.14351
H          0.07927        0.21163        4.79253
H          3.12200       -1.14032        3.16919
H          2.41581       -2.53325        2.31834
C          4.00443       -1.51935        1.25973
C          3.96292       -2.18822        0.02779
H          3.06224       -2.74293       -0.24303
C          5.16692       -0.81248        1.58939
H          5.22928       -0.29603        2.55132
C          5.03638       -2.13556       -0.85579
H          5.01184       -2.65357       -1.81631
C          6.25400       -0.75281        0.71837
H          7.16291       -0.20448        0.97169
C          6.16933       -1.41103       -0.50147
F          7.19845       -1.35609       -1.34504
H          1.45291        1.84815        2.00916
H          3.11210        1.20329        2.01097
C          2.35112        1.74888        0.07435
C          3.50215        1.46262       -0.66892
H          4.29565        0.85789       -0.22644
C          1.34403        2.51412       -0.52701
H          0.43339        2.73915        0.03090
C          3.65208        1.92712       -1.97276
H          4.54692        1.70544       -2.55701
C          1.48011        2.99014       -1.82888
H          0.70227        3.59554       -2.29776
C          2.63494        2.68596       -2.53851
F          2.76957        3.13119       -3.78808
