78
Cat183.ts34.5.log	Energy: -1442464.5330492
C          1.21080       -3.29179        0.48991
H          1.14421       -4.01063       -0.33096
H          2.23234       -3.10130        0.83392
C          0.13309       -3.23129        1.41972
H         -0.75875       -3.84405        1.26073
H          0.36445       -3.08405        2.48013
H         -0.23464       -1.60847        1.56675
Rh         0.09120       -1.53275       -0.02372
O          2.17332        0.78708        1.61548
C          3.50191       -0.59917       -0.26301
C          1.72238        1.48829       -0.87582
O         -1.89735        0.46793       -1.64295
C         -3.31397       -0.83480        0.33398
C         -1.60215        1.36849        0.92112
P         -1.67833       -0.13151       -0.12250
P          1.82397       -0.00117        0.19122
C         -0.12726       -2.08699       -1.82064
O         -0.27156       -2.40954       -2.91716
C          1.70113        0.30382        2.86685
H          0.65284       -0.02295        2.73508
C          1.74242        1.47359        3.82605
H          1.13917        2.30383        3.43383
H          2.77758        1.82342        3.96307
H          1.34094        1.18306        4.80848
C          2.52881       -0.88027        3.33065
H          2.49271       -1.69405        2.59123
H          3.58264       -0.59155        3.46528
H          2.14930       -1.26982        4.28764
C          3.63722       -1.55227       -1.27755
C          4.64574       -0.10819        0.37570
C          6.03834       -1.50793       -1.01839
C          5.90748       -0.56524        0.00136
C          4.90097       -1.99803       -1.65928
H          2.74059       -1.95166       -1.75895
H          4.99689       -2.74088       -2.45499
H          7.02893       -1.86462       -1.31116
H          6.79654       -0.18023        0.50746
H          4.53437        0.63386        1.16905
C          2.09149        2.75288       -0.40469
C          1.23637        1.35441       -2.18026
C          1.48675        3.73234       -2.53102
C          1.12750        2.47091       -3.00608
C          1.96889        3.86942       -1.22906
H          2.45143        2.85317        0.62034
H          2.25095        4.85562       -0.85100
H          1.38986        4.60928       -3.17598
H          0.74421        2.35597       -4.02271
H          0.91332        0.37504       -2.53944
C         -3.05336        1.17670       -2.10044
H         -3.54594        1.66185       -1.23756
C         -4.01666        0.20817       -2.76169
H         -4.36653       -0.55706       -2.05638
H         -3.51621       -0.29800       -3.60121
H         -4.89504        0.74524       -3.15037
C         -2.57440        2.24632       -3.06136
H         -1.88371        2.94697       -2.57314
H         -2.04446        1.78066       -3.90593
H         -3.42849        2.81585       -3.45690
C         -3.49519       -2.20998        0.14665
C         -4.38999       -0.05978        0.78761
C         -5.80274       -2.01953        0.82817
C         -5.62765       -0.65065        1.03220
C         -4.73433       -2.79947        0.38684
H         -2.64139       -2.80424       -0.19370
H         -4.86567       -3.87315        0.23269
H         -6.77468       -2.48052        1.02059
H         -6.46116       -0.03845        1.38504
H         -4.26035        1.01187        0.95663
C         -1.86109        1.28120        2.29639
C         -1.17186        2.58444        0.38316
C         -1.30543        3.61669        2.56426
C         -1.02678        3.70345        1.20265
C         -1.71997        2.40025        3.11107
H         -2.18290        0.33032        2.73055
H         -1.93072        2.32338        4.18047
H         -1.19324        4.49464        3.20500
H         -0.68370        4.64522        0.76822
H         -0.93031        2.65069       -0.67861
