78
Cat129.ts34.5.log	Energy: -1442458.1953416
C         -1.12051       -2.86766       -1.86819
H         -1.19581       -3.80718       -1.31418
H         -2.05822       -2.54602       -2.33230
C          0.11526       -2.57305       -2.52262
H          0.97290       -3.23583       -2.37637
H          0.08578       -2.13451       -3.52664
H          0.40192       -1.01177       -2.13236
Rh        -0.13999       -1.40045       -0.64994
O         -2.08575        1.21797       -1.86246
C         -3.54944       -0.44096       -0.32609
C         -1.71169        1.43192        0.71802
O          1.21736        0.37192        1.70421
C          3.12917       -1.09237        0.47535
C          2.15410        1.30418       -0.71578
P          1.57316       -0.17926        0.18651
P         -1.83450        0.15870       -0.58178
C         -0.15984       -2.48506        0.91082
O         -0.16786       -3.11318        1.87578
C         -2.14768        0.66070       -3.14953
H         -1.24851        0.05715       -3.36924
H         -3.03978        0.02037       -3.27394
H         -2.20830        1.48910       -3.86972
C         -3.78509       -1.73693        0.13241
H         -2.93473       -2.39956        0.31216
C         -4.64202        0.40200       -0.57273
H         -4.46243        1.41873       -0.93174
C         -5.08877       -2.17985        0.35594
H         -5.25671       -3.19632        0.72267
C         -5.93763       -0.05025       -0.36138
H         -6.78126        0.61811       -0.55822
C         -6.18491       -1.34894        0.11065
C         -7.59103       -1.82319        0.33375
H         -8.13841       -1.14416        1.00634
H         -8.15280       -1.85934       -0.61372
H         -7.61281       -2.82901        0.77573
C         -1.47713        2.77788        0.43454
H         -1.44578        3.11090       -0.60378
C         -1.76254        1.01886        2.05525
H         -1.92519       -0.03628        2.29173
C         -1.28704        3.69063        1.47313
H         -1.09844        4.74138        1.23460
C         -1.58912        1.93616        3.08142
H         -1.63816        1.59569        4.11988
C         -1.33720        3.28965        2.80994
C         -1.11003        4.26383        3.92887
H         -1.90563        4.19766        4.68726
H         -0.15682        4.06054        4.44501
H         -1.07494        5.29938        3.56216
C          1.91572        1.40713        2.35047
H          2.98874        1.17390        2.46818
H          1.81185        2.36082        1.80828
H          1.46446        1.52157        3.34610
C          3.41168       -1.62122        1.73728
H          2.73342       -1.41911        2.56963
C          3.99221       -1.38781       -0.58831
H          3.78153       -0.99187       -1.58596
C          4.54180       -2.41333        1.93275
H          4.74871       -2.81579        2.92836
C          5.11614       -2.17845       -0.38476
H          5.78114       -2.39392       -1.22623
C          5.41317       -2.70697        0.88013
C          6.61943       -3.57643        1.08215
H          6.49085       -4.55208        0.58522
H          7.52360       -3.11465        0.65611
H          6.80459       -3.76833        2.14828
C          1.28207        1.95514       -1.59371
H          0.28585        1.54472       -1.76711
C          3.42832        1.85262       -0.51090
H          4.13299        1.35781        0.16185
C          1.67032        3.12355       -2.24337
H          0.96832        3.61731       -2.92119
C          3.81136        3.01807       -1.16523
H          4.81004        3.42862       -0.99105
C          2.94011        3.67529       -2.04430
C          3.37137        4.91467       -2.77088
H          4.01645        5.54648       -2.14272
H          3.94935        4.65700       -3.67421
H          2.50858        5.51465       -3.09326
