80
Cat106.ts34.5.log	Energy: -1785813.5584588
C         -0.11742       -3.37292       -1.42656
H         -0.28719       -4.24973       -0.79691
H         -0.87415       -3.22931       -2.20475
C          1.22399       -2.96871       -1.68382
H          2.05568       -3.48056       -1.19283
H          1.48011       -2.59958       -2.68315
H          1.22216       -1.34266       -1.40176
Rh         0.24594       -1.67309       -0.15416
C         -1.39736       -0.04756       -2.87714
O         -2.96285       -1.05132       -1.00416
O         -1.64489        1.09092       -0.33197
C          1.24667        0.04644        2.77339
O          3.15506       -0.45112        1.01186
O          1.41822        1.30652        0.26601
P          1.49796       -0.20290        0.96686
P         -1.41564       -0.39786       -1.06164
C         -0.33276       -2.62592        1.39160
O         -0.68127       -3.20664        2.32027
H         -1.17014       -1.06548       -3.24943
C         -2.69216        0.41638       -3.53379
H         -2.59426        0.34278       -4.62901
H         -3.54571       -0.20044       -3.22232
H         -2.91885        1.46419       -3.29246
C         -0.20672        0.84652       -3.21107
H          0.70605        0.51894       -2.69050
H         -0.01177        0.82988       -4.29439
H         -0.40316        1.88931       -2.92365
C         -3.35707       -1.77976        0.08472
C         -3.67947       -3.12502       -0.08918
H         -3.59742       -3.56252       -1.08542
C         -3.43894       -1.19624        1.35119
H         -3.17127       -0.14617        1.47919
C         -4.08806       -3.88985        0.99922
H         -4.34155       -4.94580        0.89083
C         -3.84282       -1.95891        2.44348
H         -3.90420       -1.52928        3.44468
C         -4.16061       -3.29760        2.25467
F         -4.54375       -4.03081        3.29899
C         -2.49135        2.09059       -0.72650
C         -3.87982        1.93889       -0.67880
H         -4.31012        0.98678       -0.36944
C         -1.93529        3.30732       -1.12808
H         -0.84904        3.40966       -1.14892
C         -4.70584        2.99466       -1.05462
H         -5.79275        2.89741       -1.03304
C         -2.75878        4.36648       -1.49978
H         -2.34478        5.32450       -1.81934
C         -4.13745        4.19535       -1.46307
F         -4.93018        5.20468       -1.82147
H          1.29894       -1.00604        3.10969
C          2.30896        0.83801        3.52759
H          2.15903        0.70007        4.61023
H          3.32261        0.49907        3.27558
H          2.24290        1.91474        3.31946
C         -0.17014        0.55241        3.02846
H         -0.91527       -0.02806        2.46647
H         -0.40754        0.47295        4.10027
H         -0.27307        1.60758        2.73788
C          3.82061       -1.01480       -0.03937
C          3.79273       -0.43779       -1.31159
H          3.22030        0.47655       -1.47756
C          4.54057       -2.18855        0.18280
H          4.53915       -2.62470        1.18298
C          4.48238       -1.03924       -2.36201
H          4.47426       -0.61007       -3.36551
C          5.23695       -2.78825       -0.86234
H          5.80752       -3.70676       -0.71388
C          5.19546       -2.20777       -2.12525
F          5.85530       -2.78424       -3.12943
C          1.94698        2.47529        0.74194
C          3.32612        2.69291        0.77820
H          4.00779        1.90178        0.46602
C          1.06669        3.48284        1.14105
H         -0.00659        3.29254        1.09321
C          3.82237        3.91012        1.23723
H          4.89568        4.10294        1.28266
C          1.55978        4.70241        1.59615
H          0.89082        5.50332        1.91604
C          2.93493        4.89967        1.64350
F          3.41207        6.06382        2.08175
