66
Cat125.ts34.5.log	Energy: -1343849.3032182
C         -1.08555       -2.82800       -1.67029
H         -1.11396       -3.75273       -1.08787
H         -2.05003       -2.54072       -2.10078
C          0.11302       -2.52265       -2.38486
H          0.99251       -3.16030       -2.25807
H          0.03016       -2.11098       -3.39716
H          0.38185       -0.94467       -2.04711
Rh        -0.09087       -1.30438       -0.53391
O         -2.14434        1.23282       -1.73667
C         -3.51156       -0.42390       -0.11107
C         -1.69529        1.52154        0.82628
O          1.33967        0.54343        1.71818
C          3.21437       -0.91934        0.42432
C          2.14411        1.44754       -0.75621
P          1.63109       -0.03250        0.19734
P         -1.81967        0.21334       -0.44181
C         -0.02346       -2.34835        1.05357
O          0.02219       -2.95202        2.03261
C         -2.23113        0.64537       -3.00949
H         -1.32235        0.06288       -3.24485
H         -3.10811       -0.02193       -3.09099
H         -2.33822        1.45591       -3.74425
C         -3.68746       -1.70498        0.41691
C         -4.63181        0.37550       -0.37356
C         -6.08074       -1.38211        0.43078
C         -5.91046       -0.10502       -0.10814
C         -4.96937       -2.17939        0.69574
H         -2.80860       -2.32744        0.60279
H         -5.09924       -3.18027        1.11453
H         -7.08557       -1.75609        0.64236
H         -6.78167        0.52136       -0.31596
H         -4.48878        1.37714       -0.78698
C         -1.57604        2.87473        0.49849
C         -1.64330        1.12930        2.16923
C         -1.36223        3.43163        2.84209
C         -1.48857        2.08014        3.17136
C         -1.40340        3.82452        1.50649
H         -1.62196        3.17839       -0.54833
H         -1.30596        4.88066        1.24257
H         -1.23166        4.17784        3.62977
H         -1.45710        1.76480        4.21718
H         -1.70941        0.06894        2.42758
C          2.05404        1.59983        2.31285
H          3.13445        1.38268        2.38214
H          1.91110        2.54200        1.75986
H          1.64928        1.72615        3.32651
C          4.01979       -1.22482       -0.68056
C          3.56329       -1.41535        1.68500
C          5.51481       -2.48320        0.74020
C          4.71116       -2.19113        1.84051
C          5.16500       -1.99941       -0.52168
H          3.74675       -0.85291       -1.67229
H          5.78899       -2.22973       -1.38873
H          6.41316       -3.09274        0.86334
H          4.97615       -2.57327        2.82937
H          2.92157       -1.20122        2.54285
C          1.20958        2.07273       -1.58903
C          3.42411        2.00624       -0.62953
C          2.81844        3.78565       -2.14599
C          3.75878        3.16738       -1.32157
C          1.54429        3.23693       -2.27775
H          0.21207        1.64373       -1.69771
H          0.80335        3.71464       -2.92328
H          3.08266        4.69612       -2.68959
H          4.76070        3.59089       -1.21824
H          4.16925        1.52294        0.00679
