78
Cat130.ts34.5.log	Energy: -1442449.2076741
C          0.28197       -2.72425        2.30667
H         -0.13682       -3.68890        2.00817
H          1.30184       -2.77844        2.69156
C         -0.61117       -1.73471        2.80195
H         -1.68396       -1.94656        2.84321
H         -0.27582       -1.08561        3.61911
H         -0.37501       -0.37492        1.94008
Rh        -0.04561       -1.33895        0.67321
O          2.67598        0.36633        2.00317
C          3.41127       -0.84661       -0.29955
C          1.87796        1.55663       -0.19240
O         -1.43196        0.20841       -2.02744
C         -3.32244       -1.01461       -0.49347
C         -2.14003        1.46052        0.26515
P         -1.67739       -0.17189       -0.43764
P          1.95039       -0.11255        0.56659
C         -0.12145       -2.77847       -0.53234
O         -0.19525       -3.68346       -1.24376
C          2.95664       -0.59923        2.98051
H          2.05161       -0.89363        3.53702
H          3.42152       -1.50480        2.55148
H          3.66890       -0.15253        3.68974
C          3.21640       -2.09773       -0.89431
H          2.22715       -2.55213       -0.82610
C          4.69433       -0.24431       -0.34932
C          5.01548        1.10677        0.22474
H          4.46178        1.30068        1.15026
H          4.73949        1.90319       -0.48503
H          6.09401        1.19265        0.41942
C          4.24467       -2.76613       -1.55357
H          4.05914       -3.74005       -2.01185
C          5.71676       -0.94285       -1.00348
H          6.71234       -0.49160       -1.04187
C          5.50535       -2.18167       -1.60438
H          6.33206       -2.69010       -2.10698
C          2.27900        1.69276       -1.52909
H          2.63157        0.81340       -2.07435
C          1.40135        2.68481        0.51090
C          0.86496        2.61230        1.90980
H          1.67668        2.51600        2.64420
H          0.21496        1.73387        2.03603
H          0.27252        3.50807        2.13975
C          2.28103        2.93213       -2.16140
H          2.61060        3.01493       -3.19963
C          1.43277        3.92465       -0.14064
H          1.07965        4.80489        0.40367
C          1.87800        4.06094       -1.45161
H          1.88918        5.04550       -1.92538
C         -0.54689       -0.52739       -2.83524
H          0.40491       -0.72091       -2.31343
H         -0.98514       -1.49187       -3.14190
H         -0.34926        0.07691       -3.73202
C         -3.42968       -2.23220        0.18694
H         -2.53676       -2.61720        0.68744
C         -4.45331       -0.49163       -1.16609
C         -4.43619        0.80897       -1.91246
H         -3.59849        0.84703       -2.62126
H         -4.30998        1.65706       -1.22122
H         -5.37672        0.95435       -2.46096
C         -4.62521       -2.94559        0.22606
H         -4.67990       -3.89495        0.76368
C         -5.64195       -1.22847       -1.12048
H         -6.51917       -0.83602       -1.64236
C         -5.73801       -2.43756       -0.43446
H         -6.68583       -2.98154       -0.42217
C         -2.70504        1.35766        1.54573
H         -2.86776        0.36468        1.97539
C         -1.93269        2.73355       -0.30640
C         -1.38201        2.97246       -1.68186
H         -2.07555        2.61186       -2.45469
H         -0.43169        2.45082       -1.84271
H         -1.21599        4.04665       -1.83683
C         -3.06238        2.48091        2.27953
H         -3.50291        2.37013        3.27283
C         -2.29674        3.85296        0.45932
H         -2.13626        4.84475        0.02773
C         -2.84973        3.74364        1.72980
H         -3.11767        4.64383        2.28818
