64
Cat12.ts34.5.log	Energy: -2402784.9684261
C         -0.56003       -3.47514       -1.47470
H         -0.62733       -4.36578       -0.84408
H         -1.43508       -3.31038       -2.11235
C          0.72422       -3.09095       -1.95904
H          1.61525       -3.63732       -1.63734
H          0.80400       -2.72074       -2.98713
H          0.81834       -1.47396       -1.64989
Rh         0.05179       -1.81355       -0.25843
C         -1.80956        0.04103       -2.67145
C         -3.39689       -0.90533       -0.52208
C         -1.69517        1.29328       -0.09327
C          1.52645       -0.15233        2.48881
C          3.35638       -0.97880        0.49231
C          1.69273        1.27855       -0.00071
P          1.61229       -0.42322        0.67792
P         -1.67335       -0.36069       -0.88277
C         -0.33760       -2.67248        1.37676
O         -0.56719       -3.16175        2.39574
H         -0.87638        0.51787       -3.00490
H         -1.91813       -0.91009       -3.21271
H         -2.66752        0.68661       -2.91204
C         -4.48458       -0.03687       -0.68655
H         -4.31743        0.99468       -1.00935
C         -3.63648       -2.20790       -0.07846
H         -2.78808       -2.88075        0.06677
C         -5.78253       -0.45951       -0.42419
H         -6.63044        0.21643       -0.54653
C         -4.93194       -2.64763        0.18680
H         -5.11878       -3.66453        0.53546
C         -5.99787       -1.76900        0.00992
Cl        -7.61162       -2.30137        0.34054
C         -1.55778        2.49551       -0.79239
H         -1.47424        2.49988       -1.88028
C         -1.79128        1.33775        1.30559
H         -1.89801        0.40308        1.86478
C         -1.49832        3.71419       -0.11826
H         -1.35559        4.64723       -0.66592
C         -1.74573        2.54546        1.99040
H         -1.81931        2.57844        3.07883
C         -1.58446        3.73034        1.26974
Cl        -1.43785        5.23492        2.11775
H          1.57577       -1.13786        2.97182
H          2.35737        0.46736        2.85521
H          0.56338        0.31183        2.74487
C          3.61323       -2.35318        0.45004
H          2.76658       -3.04608        0.48062
C          4.43229       -0.08540        0.43277
H          4.25189        0.99238        0.45578
C          4.91602       -2.83434        0.36037
H          5.11897       -3.90608        0.32972
C          5.73952       -0.55259        0.33142
H          6.58050        0.14066        0.27696
C          5.97316       -1.92723        0.29795
Cl         7.59679       -2.51362        0.16947
C          1.78357        1.43104       -1.39118
H          1.81735        0.54200       -2.02699
C          1.63698        2.42593        0.79487
H          1.55484        2.34815        1.87969
C          1.81607        2.69134       -1.97493
H          1.88400        2.80822       -3.05782
C          1.65363        3.69708        0.22366
H          1.56834        4.58838        0.84723
C          1.73698        3.82099       -1.15911
Cl         1.68953        5.39480       -1.88040
