82
Cat195.ts34.5.log	Energy: -2784512.5578555
C         -1.30779        1.03870        3.61911
H         -1.48372        0.36479        4.46080
H         -0.35679        1.57726        3.63232
C         -2.43000        1.62034        2.97811
H         -3.43802        1.34240        3.29827
H         -2.35140        2.65373        2.62106
H         -2.28207        1.31587        1.40562
Rh        -1.57969       -0.10143        1.79913
O          0.44771        1.40373       -0.61419
O          1.30753        1.48377        1.78723
O          1.38586       -0.67547        0.38072
O         -3.80937       -2.39021        1.02823
O         -4.41020       -0.23968       -0.04822
O         -2.63502       -1.58115       -1.07755
P         -3.06444       -1.07765        0.46568
P          0.36068        0.54162        0.77917
C         -1.11410       -1.72247        2.66989
O         -0.80573       -2.70293        3.17696
C         -0.56701        2.34217       -0.99231
H         -1.54964        1.87080       -0.81123
C         -0.38673        2.58850       -2.47389
H         -0.50934        1.65329       -3.03891
H          0.62004        2.98665       -2.67436
H         -1.12572        3.31749       -2.83480
C         -0.46681        3.60988       -0.16653
H         -0.59110        3.39652        0.90533
H          0.51427        4.09046       -0.30348
H         -1.24855        4.32031       -0.47370
C          2.67007        1.60197        1.73281
C          3.31194        2.19134        0.64255
H          2.71542        2.57935       -0.18287
C          3.41534        1.09991        2.79892
H          2.89016        0.65367        3.64543
C          4.70113        2.21891        0.59004
H          5.21638        2.63936       -0.27462
C          4.80524        1.13876        2.75687
H          5.40056        0.73236        3.57600
C          5.44162        1.67927        1.64074
Cl         7.17140        1.66158        1.54782
C          2.58547       -0.68021       -0.29004
C          3.67349       -1.26930        0.35042
H          3.54027       -1.66834        1.35663
C          2.72004       -0.17503       -1.58306
H          1.85826        0.26994       -2.07420
C          4.91259       -1.31537       -0.27797
H          5.77684       -1.75009        0.22592
C          3.95718       -0.22555       -2.21594
H          4.07895        0.17099       -3.22519
C          5.05127       -0.78433       -1.55846
Cl         6.59704       -0.82076       -2.34167
C         -4.79992       -3.12968        0.27936
H         -4.82048       -2.73458       -0.74918
C         -6.14491       -2.90627        0.93596
H         -6.39609       -1.83676        0.93342
H         -6.12660       -3.26166        1.97743
H         -6.93182       -3.45244        0.39445
C         -4.36438       -4.57822        0.25297
H         -3.39686       -4.68703       -0.25750
H         -4.26581       -4.96756        1.27768
H         -5.10517       -5.19018       -0.28278
C         -4.28352        0.96443       -0.67911
C         -3.99377        1.01810       -2.04394
H         -3.87745        0.08454       -2.59468
C         -4.45294        2.14159        0.05069
H         -4.70831        2.07661        1.10906
C         -3.83834        2.24973       -2.67098
H         -3.60314        2.30666       -3.73484
C         -4.28781        3.37595       -0.57077
H         -4.40052        4.30373       -0.00776
C         -3.96264        3.42132       -1.92518
Cl        -3.67659        4.95339       -2.68569
C         -1.40695       -2.10952       -1.35476
C         -0.75147       -1.67114       -2.50577
H         -1.23071       -0.91676       -3.13219
C         -0.81434       -3.07376       -0.53795
H         -1.33221       -3.42743        0.35480
C          0.49227       -2.19299       -2.84153
H          1.01438       -1.85758       -3.73865
C          0.44240       -3.57843       -0.85831
H          0.92399       -4.31274       -0.21128
C          1.09255       -3.13544       -2.00686
Cl         2.67187       -3.73198       -2.38759
