96
Cat151.ts34.5.log	Energy: -1495406.1116563
C         -0.13508        0.29134       -3.62326
H         -0.80731       -0.32054       -4.23043
H         -0.26452        1.37186       -3.72647
C          1.16127       -0.20979       -3.33707
H          1.44736       -1.21088       -3.66966
H          1.99453        0.49927       -3.30008
H          1.34434       -0.01310       -1.66136
Rh        -0.21482       -0.42225       -1.57702
O         -0.11636        2.12487        0.78266
O          0.48882        2.72283       -1.57820
O         -1.93842        2.48310       -0.86019
O         -0.50663       -2.04428        1.40820
O          1.13637       -3.09844       -0.08654
O          1.63051       -0.87273        1.05940
P          0.48614       -1.60894        0.18350
P         -0.48835        1.69983       -0.75560
C         -1.77885       -1.43087       -1.93358
O         -2.73055       -2.03422       -2.18103
C         -0.99569        2.64402        1.76890
H         -0.39865        3.36121        2.35718
H         -1.81269        3.19847        1.28582
C         -1.53768        1.55326        2.66947
H         -2.27928        2.00830        3.35067
H         -2.08979        0.82187        2.05305
C         -0.45136        0.84624        3.46437
H          0.08437        1.59462        4.07622
H          0.28554        0.44986        2.75054
C         -0.97070       -0.27088        4.35182
H         -1.73355        0.09283        5.05973
H         -1.42013       -1.07104        3.74566
H         -0.16075       -0.72489        4.94386
C          0.67286        4.08683       -1.22427
H          0.76127        4.63863       -2.17481
H         -0.22027        4.47166       -0.70410
C          1.92091        4.27481       -0.38284
H          2.03973        5.35491       -0.18302
H          1.76470        3.78415        0.59164
C          3.18090        3.72040       -1.03211
H          3.33827        4.21285       -2.00865
H          3.01604        2.65305       -1.25335
C          4.41743        3.88252       -0.16413
H          4.62093        4.94319        0.05617
H          4.29429        3.36430        0.79980
H          5.31319        3.46715       -0.65070
C         -3.01463        1.96094       -1.62417
H         -3.47160        2.81583       -2.14926
H         -2.62988        1.25986       -2.38397
C         -4.02432        1.26404       -0.73683
H         -4.79258        0.79912       -1.37954
H         -3.50811        0.43072       -0.23044
C         -4.67860        2.17307        0.29341
H         -5.25918        2.95422       -0.22883
H         -3.88920        2.70663        0.84723
C         -5.57126        1.42904        1.27236
H         -6.37991        0.88969        0.75325
H         -4.99618        0.68286        1.84374
H         -6.03916        2.11389        1.99582
C         -1.57808       -2.94191        1.15696
H         -1.46818       -3.39975        0.15842
H         -1.49392       -3.76298        1.88792
C         -2.91818       -2.24836        1.27004
H         -3.04699       -1.86617        2.29710
H         -2.90397       -1.36485        0.61200
C         -4.07749       -3.15837        0.89307
H         -4.07904       -4.04419        1.55328
H         -3.91338       -3.53951       -0.12949
C         -5.42771       -2.46439        0.95940
H         -5.63090       -2.07229        1.96896
H         -5.46600       -1.61311        0.26211
H         -6.24792       -3.14882        0.69548
C          1.65366       -3.45469       -1.36001
H          1.61866       -4.55498       -1.40014
H          0.98410       -3.05647       -2.14341
C          3.06737       -2.95056       -1.57256
H          3.37282       -3.21677       -2.60040
H          3.05544       -1.84706       -1.53489
C          4.08322       -3.48816       -0.57559
H          4.13875       -4.58719       -0.66908
H          3.71722       -3.29330        0.44513
C          5.46584       -2.88172       -0.74823
H          5.86955       -3.07796       -1.75475
H          5.43793       -1.78796       -0.61472
H          6.18214       -3.28721       -0.01768
C          2.23042       -1.47446        2.20412
H          1.54855       -1.36283        3.06304
H          2.37037       -2.55236        2.02477
C          3.55077       -0.78577        2.46129
H          4.04195       -1.29542        3.30898
H          4.20420       -0.93956        1.58447
C          3.41927        0.70346        2.75059
H          2.78120        0.84187        3.64102
H          2.87597        1.17972        1.91756
C          4.75938        1.38660        2.96538
H          5.31092        0.93830        3.80795
H          5.39897        1.30059        2.07209
H          4.63803        2.45879        3.18235
