66
Cat127.ts34.5.log	Energy: -1592827.8171031
C         -1.06532       -2.90505       -1.81902
H         -1.12854       -3.83763       -1.25198
H         -2.00493       -2.60514       -2.29359
C          0.16844       -2.60062       -2.47103
H          1.03606       -3.24666       -2.31005
H          0.13768       -2.17569       -3.48072
H          0.42707       -1.02744       -2.10178
Rh        -0.11467       -1.40325       -0.61623
O         -2.09693        1.16103       -1.87742
C         -3.53671       -0.48578       -0.30801
C         -1.72758        1.43659        0.69349
O          1.24696        0.37743        1.73082
C          3.16066       -1.05248        0.46712
C          2.13606        1.33698       -0.69647
P          1.58710       -0.15945        0.20478
P         -1.82943        0.13087       -0.57776
C         -0.12205       -2.47273        0.95632
O         -0.11837       -3.09028        1.92744
C         -2.16188        0.57861       -3.15470
H         -1.25712       -0.01775       -3.36972
H         -3.04703       -0.07427       -3.25954
H         -2.23835        1.39290       -3.88889
C         -4.63792        0.34667       -0.55165
H         -4.47147        1.36353       -0.91607
C         -3.75097       -1.78580        0.15633
H         -2.88972       -2.43520        0.33157
C         -5.93200       -0.11099       -0.33472
H         -6.80469        0.51857       -0.51854
C         -5.04260       -2.25323        0.39136
H         -5.23066       -3.26367        0.75862
C         -6.11495       -1.40767        0.13908
F         -7.35266       -1.84720        0.35180
C         -1.58602        2.78978        0.37459
H         -1.60422        3.09935       -0.67124
C         -1.71205        1.04374        2.03768
H         -1.79612       -0.01520        2.29567
C         -1.42509        3.74107        1.38189
H         -1.30797        4.80203        1.15345
C         -1.57096        1.98392        3.05000
H         -1.56339        1.69611        4.10281
C         -1.42127        3.32418        2.70564
F         -1.26599        4.22755        3.67349
C          1.96231        1.39623        2.38722
H          3.03283        1.14808        2.49496
H          1.86818        2.35829        1.85824
H          1.52029        1.50351        3.38743
C          4.02582       -1.30692       -0.60516
H          3.81021       -0.88763       -1.59182
C          3.44324       -1.61443        1.71745
H          2.75860       -1.44434        2.55157
C          5.16146       -2.09067       -0.43206
H          5.84805       -2.29634       -1.25527
C          4.57777       -2.40013        1.90364
H          4.81396       -2.84441        2.87222
C          5.42332       -2.62656        0.82494
F          6.50960       -3.37596        0.99561
C          3.40018        1.91033       -0.49130
H          4.11585        1.42947        0.17949
C          1.24628        1.96563       -1.57585
H          0.26099        1.52981       -1.74998
C          3.76796        3.08227       -1.14346
H          4.74913        3.53734       -0.99708
C          1.59909        3.14016       -2.23328
H          0.91349        3.63870       -2.92077
C          2.85761        3.68344       -2.00666
F          3.20425        4.80273       -2.63321
