98
Cat177.ts34.5.log	Energy: -1355957.0847805
C          0.97251       -0.66697       -3.39153
H          0.85728        0.19765       -4.05035
H          1.97841       -1.09811       -3.39118
C         -0.14487       -1.54473       -3.23320
H         -1.10069       -1.29076       -3.70029
H          0.04161       -2.62484       -3.21804
H         -0.20811       -1.79098       -1.62500
Rh         0.13949       -0.20844       -1.47374
O          2.48779       -2.13509        0.26335
C          3.65472       -0.18568       -1.05335
C          2.17482        0.30533        1.36982
O         -0.97560       -0.63804        1.59611
C         -2.40797        1.36188        0.38191
C         -2.85761       -1.41890       -0.30798
P         -1.51021       -0.21659        0.07625
P          2.06575       -0.59657       -0.23271
C          0.02461        1.64412       -1.80989
O         -0.04385        2.78743       -1.96184
C          1.48361       -3.02883        0.73015
H          0.51382       -2.49969        0.75067
C          1.84082       -3.45273        2.14211
H          1.89512       -2.57629        2.80455
H          2.82130       -3.95357        2.15742
H          1.08905       -4.14815        2.54610
C          1.38581       -4.19372       -0.23501
H          1.10634       -3.83238       -1.23549
H          2.35658       -4.70753       -0.31353
H          0.62983       -4.92238        0.09646
H          3.68516       -0.82078       -1.95444
H          3.54627        0.84862       -1.42266
C          4.92509       -0.36477       -0.23616
H          4.92912        0.34365        0.61035
H          4.92415       -1.37419        0.20755
C          6.19284       -0.16278       -1.05488
H          6.17710        0.84167       -1.51662
H          6.19977       -0.87739       -1.89824
C          7.47177       -0.32645       -0.24541
H          7.46178        0.39088        0.59459
H          7.47698       -1.32811        0.21986
C          8.73704       -0.13531       -1.06602
H          9.64319       -0.25912       -0.45358
H          8.77385        0.87052       -1.51486
H          8.79138       -0.86367       -1.89124
H          1.33572       -0.08965        1.96389
H          3.11173        0.01970        1.87556
C          2.04060        1.81336        1.23259
H          2.85514        2.21440        0.60280
H          1.10820        2.03821        0.68787
C          2.03551        2.54547        2.56700
H          2.98205        2.34746        3.10242
H          1.23845        2.12573        3.20620
C          1.83228        4.04798        2.43214
H          2.62992        4.46572        1.79269
H          0.88989        4.23523        1.88701
C          1.80811        4.77751        3.76541
H          1.65756        5.86007        3.63586
H          2.75271        4.63665        4.31536
H          0.99609        4.40360        4.41020
C         -1.74740       -0.66121        2.79380
H         -2.79537       -0.40045        2.56742
C         -1.19176        0.37426        3.75275
H         -1.22436        1.37739        3.30340
H         -0.14422        0.14433        3.99984
H         -1.77150        0.39352        4.68800
C         -1.70348       -2.06820        3.35739
H         -2.10311       -2.79113        2.63095
H         -0.66461       -2.35317        3.58141
H         -2.29380       -2.14184        4.28320
H         -3.04294        1.28706        1.28015
H         -1.61770        2.09652        0.61100
C         -3.22718        1.82585       -0.81753
H         -2.65681        1.64150       -1.74404
H         -4.14333        1.21506       -0.90025
C         -3.60157        3.29927       -0.74858
H         -2.67431        3.89741       -0.69686
H         -4.14844        3.50133        0.19092
C         -4.43490        3.76663       -1.93317
H         -3.87998        3.55622       -2.86426
H         -5.35735        3.16134       -1.99062
C         -4.79328        5.24258       -1.87332
H         -5.39220        5.55170       -2.74335
H         -3.88840        5.87084       -1.85226
H         -5.37647        5.47657       -0.96788
H         -3.10016       -1.18389       -1.35913
H         -2.35892       -2.40231       -0.34274
C         -4.13544       -1.48101        0.51871
H         -3.92300       -1.87980        1.52355
H         -4.54279       -0.46650        0.67207
C         -5.20720       -2.34643       -0.13272
H         -4.80171       -3.35979       -0.30649
H         -5.43940       -1.94307       -1.13521
C         -6.48856       -2.44584        0.68295
H         -6.25022       -2.85020        1.68289
H         -6.88366       -1.42952        0.85962
C         -7.55790       -3.30341        0.02589
H         -8.47062       -3.35588        0.63844
H         -7.20247       -4.33460       -0.13056
H         -7.84169       -2.90166       -0.96010
