100
Cat172.ts34.5.log	Energy: -1779124.4435131
C          2.23718       -3.30792        0.71639
H          2.46326       -4.02988       -0.07199
H          3.11308       -2.80508        1.13531
C          1.09661       -3.52840        1.53277
H          0.42056       -4.35935        1.31601
H          1.14962       -3.27909        2.59824
H          0.33824       -2.05595        1.54870
Rh         0.72065       -1.95945       -0.01612
O          1.08533        1.01604        1.47945
O          3.30891        0.28057        0.72008
O          1.59125        0.99618       -1.05857
O         -2.19279       -1.72085       -1.64198
O         -2.55354       -1.65872        0.78886
O         -1.49887        0.37205       -0.33283
P         -1.37236       -1.28836       -0.32307
P          1.69165        0.06832        0.31694
C          1.05282       -2.46851       -1.82929
O          1.30254       -2.73899       -2.91598
C          1.65355        2.10004        2.21596
H          1.60454        1.79765        3.27496
H          2.71311        2.22281        1.95008
C          0.87321        3.38115        1.99676
H          1.21912        4.10929        2.75211
H          1.13260        3.80967        1.01714
C         -0.63577        3.20177        2.08124
H         -0.90950        2.79666        3.07247
H         -0.93141        2.43476        1.34920
C         -1.40635        4.48274        1.81307
H         -1.16891        5.26573        2.55167
H         -1.16150        4.88309        0.81646
H         -2.49337        4.31028        1.84157
C          4.29392       -0.47671        0.14952
C          4.25775       -0.83892       -1.19655
H          3.43661       -0.49127       -1.82645
C          5.34864       -0.88791        0.96764
H          5.35146       -0.58958        2.01752
C          5.26116       -1.65042       -1.74036
C          5.19060       -2.04788       -3.18615
H          4.19582       -2.44649       -3.43775
H          5.36531       -1.17998       -3.84269
H          5.94172       -2.81127       -3.43214
C          6.35622       -1.67677        0.42423
H          7.18406       -2.00543        1.05731
C          6.31022       -2.06570       -0.91547
H          7.10008       -2.69966       -1.32607
C          1.72130        2.35337       -1.15931
C          2.95331        2.97560       -0.96618
H          3.82270        2.36519       -0.71417
C          0.58926        3.09683       -1.49606
H         -0.36149        2.58048       -1.62814
C          3.06993        4.36572       -1.08850
C          4.40179        5.02867       -0.88645
H          4.89548        4.66568        0.02775
H          5.08089        4.81202       -1.72721
H          4.30155        6.12041       -0.81133
C          0.70546        4.47617       -1.63064
H         -0.17572        5.06792       -1.89035
C          1.93165        5.10823       -1.42141
H          2.00819        6.19411       -1.51915
C         -3.61403       -1.80675       -1.76513
H         -3.94102       -2.77607       -1.35402
H         -4.10054       -1.01669       -1.17306
C         -3.98161       -1.67918       -3.22384
H         -3.55803       -0.73671       -3.60833
H         -3.49962       -2.49309       -3.79138
C         -5.48762       -1.69364       -3.44226
H         -5.94259       -0.87135       -2.86200
H         -5.91163       -2.62568       -3.02806
C         -5.87792       -1.56164       -4.90537
H         -5.49769       -0.62072       -5.33448
H         -5.46343       -2.38699       -5.50595
H         -6.97051       -1.56994       -5.03615
C         -2.37340       -1.68982        2.14138
C         -1.52829       -0.79691        2.80124
H         -0.97387       -0.04279        2.23776
C         -3.08126       -2.66048        2.85332
H         -3.73156       -3.34564        2.30712
C         -1.36360       -0.88113        4.19062
C         -0.41641        0.05530        4.88248
H         -0.40043       -0.11413        5.96789
H          0.60824       -0.07504        4.49958
H         -0.69246        1.10625        4.70420
C         -2.93386       -2.72847        4.23341
H         -3.48619       -3.48329        4.79833
C         -2.07667       -1.85119        4.89942
H         -1.95820       -1.92271        5.98350
C         -2.64453        1.07822       -0.58535
C         -3.51566        1.38547        0.45754
H         -3.28210        1.02974        1.46329
C         -2.89861        1.51903       -1.88474
H         -2.19761        1.26161       -2.68068
C         -4.67099        2.13645        0.21663
C         -5.58747        2.49206        1.35092
H         -5.72994        1.64107        2.03331
H         -5.16712        3.31877        1.94766
H         -6.57393        2.81340        0.98848
C         -4.05089        2.26087       -2.12914
H         -4.26636        2.60589       -3.14335
C         -4.93101        2.56406       -1.09091
H         -5.83273        3.14664       -1.29611
