66
Cat123.ts34.5.log	Energy: -1248914.5400234
C         -0.90889       -3.06614       -0.53232
H         -0.82161       -3.78587        0.28560
H         -1.92417       -2.90651       -0.90442
C          0.19247       -2.92751       -1.42319
H          1.11708       -3.47928       -1.23062
H         -0.01443       -2.78956       -2.49004
H          0.43037       -1.30544       -1.53808
Rh         0.06122       -1.23527        0.04596
O         -1.72629        1.42160       -1.27724
O         -3.09391       -0.69600       -0.86697
O         -2.46334        0.82473        0.98291
O          1.91005        1.16064        1.57278
O          3.28380       -0.16813        0.04531
O          1.56252        1.49437       -0.84215
P          1.70712        0.27088        0.20856
P         -1.77999        0.08281       -0.30357
C          0.05847       -1.79069        1.85742
O         -0.01474       -2.14927        2.94988
C         -1.13629        1.34036       -2.55224
H         -0.20024        0.75972       -2.52715
H         -1.82834        0.88712       -3.28316
H         -0.90134        2.36392       -2.87687
C         -4.36989       -0.05340       -1.02137
H         -4.21808        1.03701       -0.95593
C         -5.28011       -0.50405        0.10247
H         -4.84287       -0.22679        1.07091
H         -5.41082       -1.59695        0.07396
H         -6.27050       -0.03197        0.01273
C         -4.89173       -0.40643       -2.39819
H         -4.19782       -0.05921       -3.17744
H         -5.00414       -1.49719       -2.49751
H         -5.87200        0.06168       -2.57374
C         -1.65491        1.56187        1.90572
H         -0.60124        1.26184        1.76433
C         -2.08540        1.17274        3.30354
H         -1.93901        0.09515        3.46492
H         -3.15036        1.40711        3.45727
H         -1.49728        1.72080        4.05506
C         -1.79068        3.04259        1.61184
H         -1.49365        3.24805        0.57431
H         -2.83453        3.36700        1.74522
H         -1.15210        3.63171        2.28756
C          2.41523        0.58505        2.75692
H          1.71301       -0.14908        3.18266
H          3.38443        0.09506        2.57442
H          2.55371        1.40040        3.47980
C          3.66641       -1.31001       -0.72732
H          2.85263       -1.54191       -1.43804
C          3.85577       -2.49561        0.19631
H          2.91084       -2.71742        0.71480
H          4.62970       -2.27629        0.94825
H          4.16397       -3.38781       -0.36978
C          4.91399       -0.93558       -1.49891
H          4.72151       -0.07390       -2.15441
H          5.72628       -0.66597       -0.80661
H          5.25249       -1.77757       -2.12092
C          2.45831        2.61676       -0.87033
H          3.34510        2.37079       -0.26286
C          1.74748        3.81340       -0.27283
H          1.46236        3.60074        0.76613
H          0.83483        4.03906       -0.84564
H          2.39903        4.70029       -0.28771
C          2.87722        2.82060       -2.31081
H          3.37628        1.92097       -2.69884
H          1.99766        3.02546       -2.94038
H          3.57205        3.66928       -2.39696
