90
Cat187.ts34.5.log	Energy: -1541073.5113360
C          1.06454       -3.42216        0.65475
H          1.05830       -4.15482       -0.15658
H          2.05307       -3.25047        1.09258
C         -0.09548       -3.31885        1.47637
H         -0.98369       -3.91261        1.24239
H          0.03786       -3.16010        2.55195
H         -0.42750       -1.68623        1.56398
Rh         0.04394       -1.64807        0.00868
O          2.02610        0.65357        1.79765
C          3.48341       -0.79842        0.07485
C          1.81204        1.31934       -0.73204
O         -1.73135        0.39387       -1.80557
C         -3.35896       -0.87201        0.02715
C         -1.66343        1.29316        0.77398
P         -1.67536       -0.20598       -0.26917
P          1.78823       -0.15284        0.35906
C         -0.02300       -2.22593       -1.79178
O         -0.07364       -2.56130       -2.89323
C          1.42352        0.20965        3.00558
H          0.38460       -0.09463        2.78029
C          1.40178        1.39958        3.94086
H          0.86063        2.23297        3.47196
H          2.42730        1.72839        4.17095
H          0.89825        1.14210        4.88476
C          2.17193       -0.98344        3.57021
H          2.17944       -1.81365        2.84834
H          3.21715       -0.71870        3.79288
H          1.69663       -1.33938        4.49709
C          4.58134       -0.30961        0.79022
H          4.42302        0.46193        1.54675
C          3.69400       -1.78441       -0.89307
H          2.83886       -2.18474       -1.44425
C          5.85914       -0.79976        0.53879
H          6.70743       -0.40690        1.10728
C          4.97710       -2.26036       -1.14832
H          5.12332       -3.02740       -1.91427
C          6.08180       -1.78226       -0.43416
C          7.45789       -2.32890       -0.67947
H          7.66761       -3.18281       -0.01326
H          7.57175       -2.68633       -1.71319
H          8.23245       -1.57118       -0.49063
C          2.14633        2.58850       -0.25331
H          2.41322        2.70733        0.79789
C          1.44515        1.17717       -2.07439
H          1.14617        0.19729       -2.45280
C          2.10143        3.69333       -1.10103
H          2.35217        4.68302       -0.70764
C          1.41718        2.28247       -2.91678
H          1.12104        2.15207       -3.96146
C          1.73517        3.56323       -2.44493
C          1.68623        4.74991       -3.36268
H          2.47477        4.69008       -4.13055
H          0.72357        4.80528       -3.89501
H          1.82611        5.69182       -2.81371
C         -2.81795        1.13688       -2.36456
H         -3.37336        1.63659       -1.54935
C         -3.74568        0.19861       -3.11486
H         -4.18171       -0.55555       -2.44651
H         -3.18563       -0.32260       -3.90619
H         -4.56788        0.76232       -3.58121
C         -2.22224        2.19341       -3.27377
H         -1.55615        2.86963       -2.72094
H         -1.63304        1.71364       -4.06972
H         -3.01965        2.79040       -3.74086
C         -3.56027       -2.24068       -0.18291
H         -2.69581       -2.85932       -0.44356
C         -4.45964       -0.07847        0.37488
H         -4.32803        0.99066        0.55847
C         -4.83020       -2.79724       -0.06987
H         -4.96736       -3.86766       -0.24727
C         -5.72679       -0.64166        0.49199
H         -6.57506       -0.00544        0.76008
C         -5.93640       -2.00865        0.27008
C         -7.29874       -2.61664        0.42680
H         -8.09382       -1.88479        0.22419
H         -7.43758       -3.47369       -0.24796
H         -7.44627       -2.98442        1.45616
C         -1.14052        2.49394        0.29085
H         -0.79434        2.55829       -0.74172
C         -2.05762        1.22280        2.11788
H         -2.45815        0.28767        2.51966
C         -1.03193        3.60374        1.12733
H         -0.61197        4.53072        0.72770
C         -1.94977        2.33410        2.94405
H         -2.26722        2.26085        3.98822
C         -1.43279        3.54700        2.46417
C         -1.28192        4.72811        3.37685
H         -2.18044        4.87854        3.99433
H         -0.43534        4.58241        4.06884
H         -1.09360        5.65271        2.81355
