62
Cat176.ts34.5.log	Energy: -1060159.0712040
C         -1.72005       -2.64967       -1.18479
H         -1.59869       -3.63674       -0.73102
H         -2.75702       -2.30210       -1.22833
C         -0.83607       -2.28601       -2.24871
H         -0.01801       -2.95877       -2.52148
H         -1.25564       -1.76151       -3.11528
H         -0.39238       -0.77923       -1.86708
Rh        -0.30117       -1.29575       -0.32655
O         -2.61847        1.34292       -0.50364
C         -3.36672       -0.52561        1.20776
C         -1.29639        1.36090        1.83708
O          1.62847        1.26079        0.50105
C          3.09894       -1.05947        0.55126
C          2.34374        0.18979       -1.95452
P          1.68538       -0.21001       -0.27516
P         -1.85279        0.23478        0.48940
C          0.13747       -2.44189        1.10680
O          0.41850       -3.10685        2.00737
C         -2.05858        1.74990       -1.74069
H         -1.62493        0.86076       -2.23865
C         -0.94555        2.75977       -1.52438
H         -0.12795        2.31660       -0.93677
H         -1.32708        3.63904       -0.98139
H         -0.53256        3.09858       -2.48752
C         -3.19675        2.29009       -2.58181
H         -3.97733        1.52557       -2.70561
H         -3.65078        3.16711       -2.09490
H         -2.83838        2.59132       -3.57764
H         -3.00917       -1.23746        1.97071
C         -4.41600        0.42635        1.75695
H         -4.69960        1.16877        0.99679
H         -4.05331        0.97130        2.64186
H         -3.78484       -1.14608        0.39926
H         -5.32338       -0.11986        2.05845
H         -2.12563        2.04600        2.07514
C         -0.78745        0.62796        3.06638
H          0.02884       -0.06016        2.80003
H         -1.57697        0.03487        3.55415
H         -0.48546        1.95581        1.39295
H         -0.40002        1.33592        3.81539
C          2.72034        2.07675        0.91615
H          3.66180        1.69104        0.48812
C          2.81788        2.03046        2.42945
H          2.98569        1.00206        2.77995
H          1.88228        2.39390        2.88051
H          3.64649        2.65882        2.78970
C          2.48291        3.47767        0.38670
H          2.41059        3.47444       -0.71072
H          1.53872        3.87888        0.78551
H          3.30023        4.15308        0.68130
H          2.75928       -1.25299        1.58170
C          3.48464       -2.36277       -0.13295
H          3.90795       -2.18827       -1.13430
H          2.60810       -3.01782       -0.25012
H          3.96694       -0.38403        0.62076
H          4.23980       -2.90455        0.45596
H          1.56917        0.83228       -2.40400
C          3.72664        0.80159       -2.11376
H          4.50744        0.19951       -1.62387
H          3.77919        1.82002       -1.70369
H          2.27413       -0.76910       -2.49495
H          3.99425        0.87069       -3.17974
