90
Cat144.ts34.5.log	Energy: -1541068.5590375
C          0.21722       -1.64228       -2.60149
H          0.56618       -2.65728       -2.80817
H         -0.75813       -1.40395       -3.03744
C          1.18557       -0.60899       -2.45845
H          2.25135       -0.85009       -2.47960
H          0.97122        0.38410       -2.86921
H          0.75592        0.17717       -1.08858
Rh         0.39991       -1.28204       -0.48463
O         -2.59272        0.25693       -1.30796
C         -2.92268       -2.18820       -0.31918
C         -2.46508        0.04868        1.39036
O          0.83920       -0.78402        2.75194
C          3.15181       -1.70791        1.67066
C          2.34706        1.06371        1.36725
P          1.64800       -0.67100        1.29124
P         -1.81900       -0.70300       -0.17773
C          0.49580       -3.11403       -0.03654
O          0.55287       -4.22604        0.26406
C         -1.88180        1.17221       -2.10251
H         -0.88397        1.38762       -1.68973
H         -1.76329        0.78694       -3.13000
H         -2.44764        2.11550       -2.14697
H         -2.70156       -2.58981       -1.32062
H         -2.51952       -2.91231        0.40596
C         -4.38855       -1.96709       -0.11444
C         -5.00257       -2.32652        1.09185
H         -4.41027       -2.80616        1.87606
C         -5.16716       -1.35593       -1.10429
H         -4.68651       -1.05658       -2.03827
C         -6.35667       -2.07408        1.29659
H         -6.82576       -2.35691        2.24228
C         -6.52765       -1.09672       -0.91580
C         -7.34170       -0.46473       -2.00824
H         -6.74639        0.25766       -2.58584
H         -7.70841       -1.22565       -2.71756
H         -8.22133        0.05833       -1.60597
C         -7.11441       -1.46140        0.30173
H         -8.17648       -1.26246        0.47003
H         -3.56092       -0.05989        1.37946
H         -2.05788       -0.57562        2.20044
C         -2.08827        1.48518        1.58085
C         -1.10934        1.86399        2.50570
H         -0.60586        1.08823        3.08333
C         -2.72620        2.48561        0.83639
H         -3.49961        2.19095        0.12213
C         -0.77986        3.20742        2.67232
H         -0.01413        3.49420        3.39805
C         -2.40202        3.83752        0.98539
C         -3.12474        4.88835        0.19203
H         -3.44663        4.50429       -0.78720
H         -4.03078        5.22761        0.72152
H         -2.49410        5.77357        0.02369
C         -1.41391        4.18851        1.91367
H         -1.14327        5.23989        2.04373
C          1.44579       -0.57420        4.00158
H          2.02072       -1.45567        4.33283
H          2.11476        0.30474        4.00879
H          0.64509       -0.39620        4.73505
H          3.53488       -1.44906        2.66946
H          2.78722       -2.74655        1.70647
C          4.23639       -1.53835        0.65101
C          4.10188       -2.06009       -0.64283
H          3.20762       -2.63214       -0.89756
C          5.38737       -0.80666        0.96065
H          5.50788       -0.40968        1.97408
C          5.09067       -1.82918       -1.59377
H          4.97983       -2.24019       -2.60029
C          6.39133       -0.56312        0.01518
C          7.59049        0.26688        0.37126
H          7.93408        0.06149        1.39596
H          8.42879        0.08012       -0.31473
H          7.35327        1.34268        0.31681
C          6.22387       -1.08217       -1.27215
H          6.99441       -0.90742       -2.02801
H          1.68078        1.60048        2.05855
H          3.35000        1.02410        1.81864
C          2.38665        1.77850        0.04993
C          3.45128        1.60752       -0.83989
H          4.28562        0.95701       -0.57305
C          1.31814        2.60145       -0.32809
H          0.47843        2.73156        0.35907
C          3.43911        2.24979       -2.07614
H          4.27320        2.10272       -2.76678
C          1.29570        3.25865       -1.56212
C          0.15412        4.16339       -1.92796
H         -0.68158        4.05091       -1.22432
H          0.46668        5.22053       -1.91021
H         -0.21670        3.95511       -2.94373
C          2.37157        3.06702       -2.43807
H          2.37170        3.56640       -3.41131
