104
Cat148.ts34.5.log	Energy: -1405247.1652554
C         -0.86635       -2.82583       -2.45510
H         -0.87725       -3.85284       -2.08061
H         -1.82469       -2.48738       -2.86051
C          0.33739       -2.34140       -3.05543
H          1.23365       -2.96832       -3.05213
H          0.25909       -1.72276       -3.95600
H          0.53156       -0.84182       -2.37769
Rh         0.04192       -1.54885       -0.99891
O         -1.21108        1.56728       -1.00603
C         -3.20471       -0.24097       -1.72667
C         -2.29166        0.02515        1.00365
O          1.11198        0.43480        1.42066
C          3.12548       -1.26834        0.62725
C          2.32871        1.02788       -0.96852
P          1.64438       -0.34071        0.04276
P         -1.66916       -0.01424       -0.73009
C          0.05424       -2.86248        0.35833
O          0.07171       -3.62516        1.22665
C         -1.93403        2.71646       -0.60943
H         -2.27753        3.24206       -1.51971
H         -2.83530        2.44561       -0.03793
C         -1.06272        3.63360        0.22588
H         -1.70311        4.42570        0.65400
H         -0.66946        3.04898        1.07477
C          0.08647        4.26464       -0.54529
H         -0.32254        4.83932       -1.39524
H          0.69375        3.46160       -0.99051
C          0.96259        5.16682        0.30731
H          0.38295        5.99724        0.74204
H          1.41263        4.61077        1.14550
H          1.78552        5.60603       -0.27705
H         -2.88521       -0.19424       -2.78198
H         -3.46492       -1.30005       -1.54895
C         -4.42277        0.64192       -1.49333
H         -4.66600        0.67600       -0.41662
H         -4.19819        1.67960       -1.78894
C         -5.65071        0.16568       -2.25942
H         -5.88551       -0.87206       -1.95982
H         -5.41213        0.11708       -3.33755
C         -6.87784        1.04217       -2.05125
H         -7.10685        1.09188       -0.97173
H         -6.63767        2.07756       -2.35206
C         -8.10217        0.55937       -2.81201
H         -8.97160        1.21224       -2.64139
H         -8.38639       -0.46007       -2.50508
H         -7.91333        0.53365       -3.89735
H         -1.37072        0.17886        1.58743
H         -2.95834        0.88035        1.20124
C         -2.95985       -1.28054        1.41604
H         -3.99025       -1.32034        1.02014
H         -2.42121       -2.12490        0.95345
C         -2.98277       -1.48409        2.92433
H         -3.53155       -0.65350        3.40598
H         -1.94706       -1.42113        3.30438
C         -3.58953       -2.81422        3.34632
H         -4.61755       -2.88860        2.94868
H         -3.02058       -3.62927        2.86565
C         -3.60623       -3.01940        4.85231
H         -4.04383       -3.99134        5.12663
H         -4.19381       -2.23538        5.35727
H         -2.58672       -2.98498        5.26921
C          1.90636        0.75139        2.54852
H          1.92165       -0.11467        3.23630
H          2.94936        0.95642        2.25857
C          1.34095        1.96721        3.25127
H          2.02319        2.22560        4.08050
H          1.37090        2.82028        2.55078
C         -0.07372        1.79365        3.78220
H         -0.09296        0.95375        4.49911
H         -0.73061        1.49219        2.95227
C         -0.62123        3.05095        4.43662
H          0.00457        3.37106        5.28547
H         -0.65510        3.88760        3.71974
H         -1.64291        2.89769        4.81579
H          3.85719       -0.59830        1.10719
H          2.75415       -1.95604        1.40634
C          3.78404       -2.06140       -0.49379
H          3.00705       -2.65482       -1.00622
H          4.18775       -1.36894       -1.25399
C          4.89883       -2.97592       -0.00665
H          4.49069       -3.67272        0.74777
H          5.66669       -2.37976        0.52014
C          5.55706       -3.77205       -1.12489
H          4.78375       -4.36027       -1.64963
H          5.96045       -3.07197       -1.87815
C          6.66287       -4.69549       -0.64011
H          7.11797       -5.25657       -1.47036
H          6.27935       -5.42973        0.08653
H          7.46638       -4.12977       -0.14118
H          2.79494        0.53399       -1.83896
H          1.43027        1.53444       -1.35705
C          3.27829        2.01773       -0.31448
H          2.76086        2.51579        0.52217
H          4.14409        1.49115        0.12507
C          3.78640        3.08071       -1.27978
H          2.92297        3.59846       -1.73439
H          4.31524        2.59256       -2.11840
C          4.70322        4.10489       -0.62623
H          4.17705        4.56277        0.22997
H          5.57811        3.58612       -0.19553
C          5.16902        5.19310       -1.57966
H          5.83353        5.91502       -1.08129
H          4.31418        5.75549       -1.98924
H          5.71998        4.76796       -2.43400
