94
Cat184.ts34.5.log	Energy: -1729737.0716672
C          0.68333       -3.62893        0.57834
H          0.62748       -4.34372       -0.24697
H          1.67520       -3.55365        1.03550
C         -0.47735       -3.44082        1.38440
H         -1.40862       -3.95319        1.12640
H         -0.34882       -3.31461        2.46488
H         -0.67059       -1.78666        1.50005
Rh        -0.16931       -1.76120       -0.04634
O          1.96858        0.33343        1.82435
C          3.32575       -1.21909        0.10919
C          1.86075        1.05638       -0.69074
O         -1.74140        0.45220       -1.84751
C         -3.48380       -0.68026       -0.02645
C         -1.60795        1.31673        0.73582
P         -1.75239       -0.16593       -0.31585
P          1.69079       -0.42895        0.36630
C         -0.26695       -2.29820       -1.85718
O         -0.33818       -2.60869       -2.96503
C          1.32829       -0.09429        3.01865
H          0.26325       -0.28405        2.78908
C          1.43110        1.05251        4.00146
H          0.96943        1.95731        3.58333
H          2.48643        1.26867        4.23072
H          0.91561        0.80413        4.94126
C          1.95381       -1.37657        3.53630
H          1.88324       -2.17549        2.78359
H          3.01902       -1.22480        3.76981
H          1.44184       -1.71875        4.44871
C          3.47106       -2.21344       -0.86818
H          2.59507       -2.53156       -1.43988
C          4.44730       -0.84212        0.84895
H          4.34345       -0.07056        1.61505
C          4.70338       -2.80195       -1.10654
H          4.82772       -3.57637       -1.86583
C          5.69011       -1.43519        0.62927
H          6.54474       -1.12129        1.22949
C          5.82477       -2.41940       -0.35709
O          6.98028       -3.05184       -0.64775
C          8.13300       -2.71218        0.06760
H          8.02200       -2.91294        1.14826
H          8.94477       -3.33706       -0.32642
H          8.40407       -1.64985       -0.06748
C          1.48524        0.98552       -2.03927
H          1.09303        0.04970       -2.44303
C          2.31990        2.27343       -0.18704
H          2.59438        2.34031        0.86697
C          1.56704        2.10105       -2.85751
H          1.26988        2.05838       -3.90676
C          2.39500        3.40696       -0.99702
H          2.74879        4.34570       -0.56889
C          2.01332        3.32562       -2.34119
O          2.03211        4.36438       -3.20367
C          2.46794        5.61098       -2.74551
H          3.51278        5.57769       -2.38867
H          2.40674        6.30050       -3.59727
H          1.83009        5.99693       -1.92955
C         -2.75528        1.29279       -2.40369
H         -3.26390        1.83666       -1.58599
C         -3.76408        0.44674       -3.15947
H         -4.26909       -0.26667       -2.49492
H         -3.25224       -0.12052       -3.95181
H         -4.52994        1.08546       -3.62507
C         -2.06554        2.29494       -3.30801
H         -1.33755        2.90413       -2.75542
H         -1.52468        1.76763       -4.10825
H         -2.80434        2.96618       -3.77067
C         -4.51741        0.20782        0.31708
H         -4.29332        1.26097        0.50365
C         -3.80648       -2.02329       -0.23334
H         -2.99810       -2.71640       -0.48713
C         -5.82530       -0.23388        0.43092
H         -6.63589        0.44664        0.69832
C         -5.11774       -2.48224       -0.12759
H         -5.33046       -3.53748       -0.29986
C         -6.13911       -1.58337        0.20406
O         -7.43415       -1.92037        0.33461
C         -7.81399       -3.25130        0.11628
H         -7.32535       -3.93919        0.82832
H         -8.89980       -3.29676        0.26727
H         -7.58193       -3.58017       -0.91178
C         -2.00403        1.27341        2.08331
H         -2.49836        0.38056        2.47657
C         -0.96634        2.46288        0.26875
H         -0.61923        2.50493       -0.76475
C         -1.77554        2.34727        2.92646
H         -2.07641        2.32316        3.97547
C         -0.72722        3.55088        1.10855
H         -0.20752        4.42071        0.70723
C         -1.12610        3.49560        2.44607
O         -0.91500        4.47749        3.34538
C         -0.23670        5.63023        2.93321
H         -0.78339        6.16690        2.13761
H         -0.15967        6.28240        3.81239
H          0.78018        5.39902        2.56913
