96
Cat174.ts34.5.log	Energy: -1839336.7315416
C          1.55186        0.56241       -3.27541
H          1.95236       -0.15810       -3.99330
H          0.70686        1.14945       -3.64837
C          2.43999        1.15551       -2.33938
H          3.48664        0.84471       -2.29402
H          2.29566        2.20557       -2.06270
H          1.62718        1.00816       -0.87484
Rh         1.21126       -0.45000       -1.40114
O         -1.18785        1.42673       -0.02268
C         -2.00045        0.59934       -2.56752
C         -1.98014       -1.23861       -0.24362
O          0.72015       -2.01990        1.46664
C          3.30535       -2.38849        0.67918
C          2.40175        0.08483        1.91593
P          1.89258       -1.17430        0.62611
P         -0.99749        0.13140       -1.04809
C          1.25038       -2.18384       -2.16594
O          1.26481       -3.25014       -2.60492
C         -2.34778        2.22282        0.11869
H         -2.46846        2.86246       -0.77583
H         -3.25046        1.59648        0.20461
C         -2.20204        3.09102        1.34857
H         -1.95012        2.43948        2.20117
H         -1.34622        3.77494        1.21217
C         -3.46614        3.87803        1.66104
H         -4.30074        3.16954        1.80619
H         -3.74206        4.49640        0.78803
C         -3.32939        4.76186        2.88985
H         -3.09241        4.16318        3.78390
H         -2.52133        5.50031        2.76485
H         -4.25781        5.31469        3.09711
H         -1.83373        1.67936       -2.70592
H         -1.44537        0.10220       -3.37707
C         -3.45302        0.24467       -2.66190
C         -3.83117       -1.02790       -3.11614
H         -3.05960       -1.73975       -3.42258
C         -4.47264        1.14401       -2.32368
H         -4.21685        2.15239       -1.99437
C         -5.16879       -1.40607       -3.20069
H         -5.46261       -2.39557       -3.55542
C         -5.81532        0.78655       -2.40449
H         -6.60928        1.48764       -2.14122
C         -6.14895       -0.49154       -2.83494
F         -7.43186       -0.84196       -2.91126
H         -2.40654       -1.84515       -1.05605
H         -1.19465       -1.83500        0.24086
C         -3.01501       -0.84121        0.75935
C         -2.60741       -0.37310        2.01636
H         -1.54008       -0.33714        2.24206
C         -4.38656       -0.89100        0.48357
H         -4.72838       -1.26134       -0.48480
C         -3.53172        0.06401        2.96021
H         -3.22222        0.43799        3.93812
C         -5.32549       -0.45760        1.41649
H         -6.39564       -0.48669        1.20362
C         -4.88436        0.02628        2.64178
F         -5.77604        0.45953        3.53400
C          0.96074       -2.71375        2.67893
H          1.44201       -3.68450        2.45911
H          1.65054       -2.14132        3.32574
C         -0.34529       -2.94483        3.40908
H         -0.10824       -3.42621        4.37435
H         -0.79357       -1.96793        3.65694
C         -1.35073       -3.79259        2.64284
H         -0.91071       -4.78753        2.45151
H         -1.51868       -3.34182        1.65276
C         -2.67910       -3.93774        3.36624
H         -2.55066       -4.39487        4.36094
H         -3.15920       -2.95640        3.50759
H         -3.37941       -4.56784        2.79789
H          3.37569       -2.83542        1.68195
H          3.02911       -3.18785       -0.02664
C          4.61344       -1.75497        0.31365
C          4.86677       -1.31634       -0.99413
H          4.10339       -1.46900       -1.76029
C          5.59973       -1.54631        1.28480
H          5.43023       -1.89302        2.30806
C          6.05645       -0.67153       -1.31757
H          6.26088       -0.32505       -2.33230
C          6.80011       -0.90748        0.97677
H          7.57358       -0.74496        1.72934
C          7.00826       -0.46904       -0.32437
F          8.14782        0.15006       -0.62922
H          1.51257        0.17783        2.55870
H          3.21537       -0.33366        2.52742
C          2.77953        1.42671        1.36986
C          4.10095        1.73157        1.02651
H          4.88608        0.98982        1.18445
C          1.78915        2.38835        1.13046
H          0.74425        2.15503        1.34532
C          4.43480        2.96437        0.47117
H          5.46371        3.20718        0.19986
C          2.10677        3.62620        0.57811
H          1.33969        4.37915        0.38744
C          3.43029        3.89913        0.25502
F          3.74120        5.08124       -0.27861
