100
Cat115.ts34.5.log	Energy: -1545303.4013112
C          0.75101       -0.52721       -3.16799
H          1.09117       -1.49666       -3.54179
H         -0.03880       -0.06966       -3.77278
C          1.69874        0.32013       -2.52214
H          2.71386       -0.03886       -2.33284
H          1.67507        1.39640       -2.72858
H          0.95337        0.82507       -1.17757
Rh         0.37281       -0.68821       -1.05875
C         -2.23648        1.46818       -2.41579
C         -2.95453       -1.26244       -2.01161
C         -2.94539        0.49132        0.25023
C         -0.05512       -0.81335        2.48601
C          2.36476       -2.02941        1.52814
C          2.13736        0.88530        1.64359
P          1.18996       -0.64123        1.09591
P         -1.87615        0.06402       -1.21739
C          0.39852       -2.55959       -1.10250
O          0.49020       -3.71377       -1.12315
H         -2.02253        0.98822       -3.38891
C         -3.68077        1.95459       -2.42244
H         -3.84361        2.65222       -3.26013
H         -4.41194        1.13964       -2.53353
H         -3.91579        2.49879       -1.49510
C         -1.27221        2.63748       -2.24970
H         -0.22982        2.29885       -2.18452
H         -1.35972        3.32983       -3.10268
H         -1.49217        3.20665       -1.33443
H         -3.72570       -0.76387       -2.61758
H         -2.27892       -1.79393       -2.69710
C         -3.60909       -2.21023       -1.05282
C         -2.93514       -3.32763       -0.54924
H         -1.92795       -3.55776       -0.89564
C         -4.91940       -1.97333       -0.61336
H         -5.47022       -1.12019       -1.02266
C         -3.54931       -4.15499        0.38955
H         -3.00824       -5.02164        0.77756
C         -5.55097       -2.79198        0.32534
C         -6.96125       -2.52165        0.76495
H         -7.30231       -1.52790        0.44156
H         -7.65757       -3.26547        0.34385
H         -7.05691       -2.57476        1.86034
C         -4.84062       -3.88741        0.83274
H         -5.31159       -4.54141        1.57210
H         -4.00247        0.43915       -0.04583
H         -2.79632       -0.34112        0.95891
C         -2.68959        1.80788        0.92865
C         -1.39620        2.27560        1.18909
H         -0.54685        1.69522        0.82397
C         -3.77074        2.59383        1.34134
H         -4.78690        2.24244        1.13440
C         -1.20321        3.48227        1.85549
H         -0.18890        3.84054        2.05179
C         -3.59773        3.81138        2.00974
C         -4.78632        4.60971        2.46167
H         -5.60607        4.56226        1.72953
H         -5.18061        4.22290        3.41625
H         -4.52698        5.66651        2.61778
C         -2.29383        4.24682        2.26509
H         -2.13205        5.19631        2.78251
H         -0.73300        0.03718        2.30050
C         -0.85393       -2.09855        2.30823
H         -1.70517       -2.12415        3.00704
H         -1.25069       -2.18728        1.28698
H         -0.23925       -2.99085        2.50930
C          0.49672       -0.67860        3.89972
H          1.04107        0.26375        4.05690
H         -0.33118       -0.70103        4.62668
H          1.17133       -1.50930        4.16057
H          2.45806       -2.08266        2.62288
H          1.86432       -2.95011        1.19192
C          3.72524       -1.90846        0.91238
C          3.92230       -2.07656       -0.46512
H          3.07082       -2.32181       -1.10165
C          4.82912       -1.59420        1.71156
H          4.68536       -1.47491        2.79052
C          5.18996       -1.91172       -1.01303
H          5.33507       -2.04327       -2.08815
C          6.11227       -1.42444        1.17616
C          7.26423       -1.04421        2.06073
H          7.25489        0.03757        2.27546
H          7.22034       -1.56727        3.02765
H          8.22930       -1.27742        1.58902
C          6.27738       -1.58431       -0.20285
H          7.26954       -1.45908       -0.64514
H          1.40593        1.49532        2.19580
H          2.89866        0.55999        2.36911
C          2.75983        1.71071        0.55541
C          4.02934        1.42216        0.04782
H          4.60228        0.58894        0.45444
C          2.05770        2.79168        0.00650
H          1.06722        3.03768        0.39188
C          4.56450        2.18941       -0.98510
H          5.55706        1.94666       -1.37272
C          2.57636        3.57049       -1.03101
C          1.78459        4.70870       -1.60840
H          0.85942        4.88283       -1.04136
H          2.36675        5.64348       -1.61025
H          1.49869        4.50443       -2.65311
C          3.84682        3.25200       -1.52597
H          4.27600        3.84515       -2.33857
