80
Cat169.ts34.5.log	Energy: -1208049.5702408
C         -1.32106       -3.52128       -0.50702
H         -1.20406       -4.18506        0.35368
H         -2.36001       -3.36543       -0.81283
C         -0.31068       -3.54864       -1.51854
H          0.58209       -4.16370       -1.37465
H         -0.62308       -3.49905       -2.56745
H         -0.00257       -1.95331       -1.81480
Rh        -0.13983       -1.76124       -0.20613
O         -1.33268        1.08060       -1.51951
C         -3.40766       -0.73502       -1.12696
C         -2.24089        0.75382        1.05631
O          1.33943        1.02710        0.56253
C          3.23685       -0.95400        0.31125
C          2.00290        0.27330       -2.00954
P          1.62026       -0.34936       -0.32711
P         -1.77827       -0.15023       -0.48423
C          0.22455       -2.14245        1.60714
O          0.47093       -2.32388        2.72160
C         -1.96792        2.33900       -1.63923
H         -2.07301        2.53903       -2.72050
H         -2.98584        2.31799       -1.21935
C         -1.17416        3.45609       -0.98735
H         -1.73535        4.39577       -1.14191
H         -1.14117        3.29085        0.10313
C          0.24353        3.60070       -1.51604
H          0.21718        3.69607       -2.61647
H          0.77907        2.66647       -1.29727
C          0.99012        4.78030       -0.91560
H          0.49846        5.73704       -1.15575
H          1.03692        4.70516        0.18291
H          2.02455        4.83750       -1.28882
H         -3.17855       -1.22756       -2.08777
H         -3.66443       -1.55845       -0.43642
C         -4.60000        0.20178       -1.27795
H         -4.39424        0.94188       -2.06741
H         -4.75001        0.77650       -0.34769
C         -5.88160       -0.54678       -1.61659
H         -5.77408       -1.11536       -2.55411
H         -6.14250       -1.26662       -0.82426
H         -6.73313        0.14028       -1.73805
H         -1.28376        1.15564        1.42795
H         -2.89891        1.61305        0.84240
C         -2.87877       -0.15139        2.10339
H         -2.27490       -1.06924        2.19858
H         -3.87473       -0.47606        1.75536
C         -3.00973        0.51926        3.46188
H         -2.02181        0.79629        3.86079
H         -3.61336        1.43947        3.40209
H         -3.48885       -0.14771        4.19467
C          2.26833        1.87823        1.20005
H          3.17800        1.32554        1.49060
H          2.57790        2.68392        0.51125
C          1.61336        2.46468        2.43295
H          2.30906        3.19783        2.87821
H          0.72117        3.03508        2.11864
C          1.21769        1.41791        3.46412
H          2.11576        0.85210        3.77013
H          0.55424        0.68011        2.98478
C          0.54151        2.00980        4.68907
H          1.20368        2.71639        5.21539
H         -0.37121        2.56208        4.41232
H          0.25070        1.22780        5.40649
H          4.01928       -0.18291        0.21303
H          3.08578       -1.13437        1.38980
C          3.67368       -2.24369       -0.37443
H          3.84307       -2.05200       -1.44848
H          2.83982       -2.96390       -0.32277
C          4.92856       -2.84179        0.24133
H          5.78022       -2.14480        0.18336
H          4.77051       -3.08343        1.30443
H          5.22270       -3.77038       -0.27112
H          2.14110       -0.63252       -2.62528
H          1.04947        0.71550       -2.34439
C          3.16422        1.24011       -2.18956
H          4.10918        0.75467       -1.89141
H          3.03905        2.10154       -1.51394
C          3.28068        1.74214       -3.62119
H          3.42570        0.90784       -4.32591
H          2.36612        2.27522       -3.92586
H          4.12877        2.43351       -3.74117
