92
Cat113.ts34.5.log	Energy: -1635351.2020804
C         -0.18320       -3.01817       -2.01017
H         -0.06734       -4.04038       -1.63869
H         -1.08779       -2.85960       -2.60806
C          0.99389       -2.28422       -2.34280
H          1.98270       -2.71255       -2.15211
H          0.97251       -1.65318       -3.23967
H          0.75972       -0.82419       -1.65194
Rh         0.15699       -1.64145       -0.40007
C         -2.10701        0.30282       -2.30645
C         -3.37206       -1.27008       -0.25057
C         -1.95103        0.95185        0.76061
C          1.70812       -0.06652        2.52612
C          3.44695       -0.89247        0.38373
C          1.65941        1.43314        0.05190
P          1.72117       -0.29627        0.66774
P         -1.81117       -0.32961       -0.56631
C         -0.14360       -2.97187        0.89912
O         -0.38182       -3.82287        1.64429
H         -1.99797       -0.67524       -2.81534
C         -3.48050        0.84504       -2.67366
H         -3.51988        1.03013       -3.76042
H         -4.27806        0.12975       -2.43009
H         -3.69019        1.78497       -2.15002
C         -0.97089        1.18894       -2.80145
H          0.00616        0.72953       -2.59732
H         -1.06107        1.34154       -3.88937
H         -0.98471        2.16964       -2.30941
C         -3.33655       -2.66317       -0.33341
H         -2.38215       -3.13212       -0.58067
C         -4.59742       -0.65674        0.09816
O         -4.61499        0.68828        0.14443
C         -5.73497        1.35901        0.63913
H         -6.61642        1.23143       -0.01426
H         -5.46767        2.42350        0.67318
H         -5.99339        1.02611        1.65926
C         -4.46357       -3.44672       -0.08661
H         -4.39990       -4.53425       -0.15829
C         -5.72555       -1.43823        0.36975
H         -6.66802       -0.96659        0.64943
C         -5.65497       -2.82740        0.27200
H         -6.54630       -3.42340        0.48377
C         -1.80350        0.42022        2.04526
H         -1.61038       -0.65305        2.13654
C         -2.17509        2.33610        0.64397
O         -2.32816        2.83773       -0.59761
C         -2.56192        4.20418       -0.77251
H         -3.49646        4.52790       -0.28023
H         -2.65580        4.36714       -1.85414
H         -1.72503        4.81459       -0.39332
C         -1.88260        1.20982        3.19133
H         -1.76812        0.75598        4.17794
C         -2.24242        3.13899        1.78898
H         -2.40743        4.21261        1.69668
C         -2.09548        2.57804        3.05670
H         -2.14845        3.22157        3.93824
H          0.74162        0.43141        2.71023
C          1.67972       -1.41577        3.23147
H          1.67111       -1.26167        4.32233
H          0.79543       -2.00760        2.96921
H          2.57321       -2.01371        2.99004
C          2.83883        0.79860        3.06957
H          2.92260        1.76447        2.55549
H          2.67434        0.98785        4.14307
H          3.80521        0.28108        2.96922
C          3.60554       -2.27191        0.23824
H          2.69891       -2.88572        0.25462
C          4.59970       -0.07984        0.32253
O          4.42375        1.24699        0.46714
C          5.50740        2.11790        0.33914
H          6.26649        1.95145        1.12404
H          5.10156        3.13245        0.44278
H          5.99317        2.02673       -0.64865
C          4.85875       -2.85627        0.05184
H          4.94853       -3.93960       -0.05068
C          5.85677       -0.65783        0.11357
H          6.74763       -0.03177        0.05723
C          5.98194       -2.04095       -0.01598
H          6.97254       -2.47492       -0.17389
C          1.06719        2.45562        0.79089
H          0.66490        2.24785        1.78333
C          2.12577        1.73777       -1.24484
O          2.65044        0.70685       -1.93639
C          3.16195        0.91413       -3.22011
H          2.38243        1.26535       -3.91905
H          3.54058       -0.05690       -3.56328
H          3.99248        1.64192       -3.21589
C          0.96536        3.75502        0.28881
H          0.50464        4.53308        0.90103
C          2.03144        3.03400       -1.75234
H          2.39920        3.26410       -2.75245
C          1.45370        4.04263       -0.97878
H          1.38612        5.05586       -1.38286
