108
Cat153.ts34.5.log	Energy: -1500843.9642432
C         -1.16141       -0.38984       -3.41061
H         -0.81892       -1.21656       -4.03854
H         -2.24942       -0.28748       -3.36332
C         -0.36525        0.79485       -3.36648
H          0.59195        0.82834       -3.89478
H         -0.87788        1.76387       -3.36217
H         -0.24163        1.14877       -1.76822
Rh        -0.10063       -0.45201       -1.54296
O         -1.56626        1.21170        0.87146
C         -3.49635        0.29459       -0.88060
C         -2.22833       -1.46961        1.20483
O          1.68051       -0.51431        1.36905
C          3.28692       -0.48993       -0.83346
C          1.75065        1.87990        0.28631
P          1.64749        0.09650       -0.18463
P         -1.88126       -0.14103       -0.06355
C          0.54658       -2.18814       -1.87720
O          0.97120       -3.24353       -2.08572
C         -2.02300        1.51621        2.17006
H         -3.12655        1.53232        2.20836
H         -1.67535        0.75299        2.88921
C         -1.48459        2.87579        2.56419
H         -1.82795        3.09387        3.59080
H         -0.38404        2.82080        2.61106
C         -1.90831        3.99276        1.62068
H         -3.01168        4.01942        1.56671
H         -1.56418        3.74017        0.60421
C         -1.38402        5.36025        2.02681
H         -1.73464        5.64471        3.03212
H         -0.28265        5.37700        2.04760
H         -1.71160        6.14329        1.32633
H         -3.13436        0.91363       -1.72467
C         -4.50661        1.15529       -0.12290
H         -4.01186        2.05958        0.26121
H         -4.90034        0.60536        0.74781
C         -5.66723        1.54788       -1.03532
H         -6.40633        2.14112       -0.47232
H         -5.28539        2.20699       -1.83598
C         -6.33143        0.32873       -1.66606
H         -7.14042        0.64121       -2.34614
H         -6.80973       -0.27389       -0.87218
C         -5.31805       -0.53867       -2.40544
H         -4.91762        0.02103       -3.27024
H         -5.80621       -1.43700       -2.81691
C         -4.16391       -0.93981       -1.49251
H         -4.55669       -1.58210       -0.68639
H         -3.42171       -1.54432       -2.03811
H         -1.38155       -1.30731        1.89976
C         -2.04608       -2.87047        0.60909
H         -1.12769       -2.90396        0.00679
H         -2.87249       -3.08042       -0.09147
C         -2.02792       -3.93787        1.69725
H         -1.91109       -4.93521        1.24333
H         -1.14048       -3.78301        2.33809
C         -3.28477       -3.88530        2.55753
H         -3.23103       -4.62785        3.37022
H         -4.15714       -4.16434        1.93896
C         -3.50501       -2.48868        3.12502
H         -2.69499       -2.25253        3.83937
H         -4.44508       -2.44894        3.69943
C         -3.52149       -1.42648        2.02695
H         -4.38155       -1.61368        1.36262
H         -3.68776       -0.43832        2.47468
C          1.39163       -1.87004        1.64021
H          0.70390       -1.88516        2.50438
H          0.85399       -2.32173        0.78954
C          2.63870       -2.66555        1.97669
H          2.33732       -3.71372        2.15062
H          3.30662       -2.68716        1.09871
C          3.39378       -2.13129        3.18544
H          2.75228       -2.22139        4.08017
H          3.56062       -1.05004        3.04741
C          4.71942       -2.83500        3.42250
H          4.57988       -3.91776        3.57327
H          5.39377       -2.70911        2.55957
H          5.23790       -2.43961        4.30910
H          3.12832       -1.58554       -0.77470
C          4.52962       -0.15889       -0.01090
H          4.35715       -0.36770        1.05524
H          4.74249        0.92088       -0.09278
C          5.73607       -0.93820       -0.52756
H          6.63330       -0.68326        0.06009
H          5.55961       -2.01855       -0.37243
C          5.97548       -0.67198       -2.01016
H          6.82167       -1.27486       -2.37804
H          6.26911        0.38580       -2.14042
C          4.72465       -0.94707       -2.83929
H          4.49748       -2.02811       -2.81249
H          4.90286       -0.69434       -3.89721
C          3.51507       -0.17972       -2.31380
H          3.68184        0.90307       -2.44601
H          2.60804       -0.43222       -2.88512
H          0.68950        2.07951        0.52444
C          2.13504        2.77294       -0.89362
H          1.52992        2.52194       -1.77918
H          3.18890        2.58969       -1.16780
C          1.96994        4.24480       -0.52962
H          2.25725        4.88139       -1.38227
H          0.90172        4.44813       -0.33260
C          2.79032        4.60375        0.70438
H          2.63532        5.66071        0.97687
H          3.86443        4.49975        0.46461
C          2.44965        3.69624        1.88100
H          1.41287        3.89849        2.20052
H          3.08910        3.93246        2.74721
C          2.58303        2.21767        1.52533
H          3.64453        1.98993        1.34049
H          2.26899        1.58399        2.36678
