100
Cat155.ts34.5.log	Energy: -1779026.7148433
C         -0.79182       -3.69793       -0.64974
H         -0.47380       -4.46517        0.06085
H         -1.87203       -3.64427       -0.81755
C          0.09048       -3.36281       -1.71519
H          1.08307       -3.82008       -1.76162
H         -0.33972       -3.16066       -2.70246
H          0.18050       -1.73513       -1.70070
Rh         0.12154       -1.83536       -0.08045
O         -1.70990        0.71880       -1.24950
C         -3.33726       -1.33222       -0.61265
C         -2.27466        0.34337        1.41643
O          1.77431        0.65546        1.24755
C          3.50380       -1.22279        0.38540
C          2.31723        0.60244       -1.45082
P          1.90324       -0.43704       -0.00627
P         -1.77581       -0.51964       -0.12152
C          0.46070       -2.40724        1.69232
O          0.66247       -2.72085        2.78148
C         -2.55623        1.85211       -1.24144
H         -2.78231        2.08940       -2.29612
H         -3.52114        1.62213       -0.75644
C         -1.89238        3.03583       -0.56585
H         -1.60763        2.74178        0.45703
H         -0.95046        3.26317       -1.09449
C         -2.78265        4.26749       -0.51237
H         -3.71881        4.01137        0.01507
H         -3.08289        4.55637       -1.53594
C         -2.11770        5.44709        0.17867
H         -1.83871        5.19044        1.21337
H         -1.19515        5.74692       -0.34340
H         -2.78040        6.32495        0.21812
C         -3.96918       -2.23379        0.26153
H         -3.57996       -2.36749        1.27508
C         -3.83771       -1.21187       -1.90937
H         -3.34150       -0.53763       -2.61143
C         -5.07768       -2.95970       -0.14108
H         -5.57687       -3.65782        0.53363
C         -4.95358       -1.93894       -2.32969
H         -5.31783       -1.81333       -3.34973
C         -5.58373       -2.81678       -1.44268
O         -6.66547       -3.56285       -1.74559
C         -7.20298       -3.47696       -3.03417
H         -6.47466       -3.78513       -3.80538
H         -8.06111       -4.16043       -3.06461
H         -7.55303       -2.45545       -3.26750
C         -1.25978        0.73971        2.30383
H         -0.22255        0.47228        2.08476
C         -3.59280        0.70104        1.71634
H         -4.40624        0.38550        1.05811
C         -1.55321        1.49097        3.43030
H         -0.76934        1.80625        4.12174
C         -3.90262        1.45165        2.85010
H         -4.94292        1.70827        3.05176
C         -2.87713        1.85902        3.71234
O         -3.06895        2.59036        4.82609
C         -4.36903        2.98782        5.15981
H         -5.03165        2.12193        5.33472
H         -4.29248        3.56830        6.08793
H         -4.81759        3.62459        4.37674
C          2.58519        1.80851        1.38204
H          2.79959        1.92245        2.45873
H          3.55817        1.66789        0.87936
C          1.88313        3.04154        0.84897
H          1.61188        2.86436       -0.20424
H          0.93291        3.17056        1.39518
C          2.73087        4.29981        0.95185
H          3.67623        4.14326        0.40252
H          3.01800        4.47099        2.00495
C          2.02610        5.53168        0.40709
H          1.75743        5.39434       -0.65289
H          1.09374        5.73365        0.95790
H          2.65865        6.42944        0.47816
C          4.19248       -1.95729       -0.59430
H          3.81631       -1.97854       -1.62116
C          3.99454       -1.23565        1.69103
H          3.45521       -0.69483        2.47186
C          5.34407       -2.65798       -0.27937
H          5.88945       -3.22735       -1.03444
C          5.15179       -1.94186        2.02313
H          5.50391       -1.93005        3.05486
C          5.83576       -2.65710        1.03575
O          6.96013       -3.36911        1.24996
C          7.48532       -3.42441        2.54585
H          6.77257       -3.87453        3.25939
H          8.38257       -4.05437        2.49595
H          7.77258       -2.42432        2.91673
C          3.61507        1.07586       -1.71104
H          4.45390        0.73317       -1.10031
C          1.27377        1.04197       -2.27079
H          0.25398        0.69897       -2.07622
C          3.85407        1.97106       -2.74138
H          4.85871        2.34269       -2.95175
C          1.50097        1.94504       -3.30778
H          0.65970        2.26968       -3.92082
C          2.79612        2.42058       -3.54620
O          3.11852        3.29464       -4.51681
C          2.10424        3.78801       -5.34701
H          1.33549        4.33566       -4.77374
H          2.58289        4.48053       -6.05083
H          1.61237        2.98140       -5.91842
