108
Cat173.ts34.5.log	Energy: -1688967.4551362
C         -1.09859       -4.56050       -1.15955
H         -1.01116       -5.40166       -0.46689
H         -2.11357       -4.39775       -1.53706
C          0.00136       -4.28938       -2.02992
H          0.92578       -4.86464       -1.92637
H         -0.21213       -4.01289       -3.06818
H          0.20560       -2.66288       -1.91946
Rh        -0.11230       -2.84796       -0.33394
O         -1.35312        0.08645       -1.21591
C         -3.44756       -1.75009       -1.26010
C         -2.36822       -0.69142        1.27366
O          1.63207       -0.37198        1.25023
C          3.27930       -2.22050        0.09265
C          1.78711       -0.17513       -1.42274
P          1.62469       -1.40108       -0.05938
P         -1.83049       -1.29115       -0.42025
C          0.02764       -3.65889        1.36679
O          0.08979       -4.15937        2.40511
C         -2.15464        1.14998       -1.69512
H         -2.69334        0.82009       -2.60301
H         -2.90655        1.44496       -0.94684
C         -1.25943        2.32317       -2.02503
H         -0.63356        2.53436       -1.14447
H         -0.56649        2.04107       -2.83651
C         -2.04120        3.57141       -2.40418
H         -2.71979        3.83099       -1.57231
H         -2.69087        3.35708       -3.27212
C         -1.14088        4.75549       -2.71718
H         -0.50264        5.00367       -1.85411
H         -0.47074        4.53592       -3.56355
H         -1.72246        5.65369       -2.97464
H         -3.27550       -1.54703       -2.32916
H         -3.47858       -2.84541       -1.15694
C         -4.74071       -1.16441       -0.78036
C         -5.43066       -1.76984        0.28182
H         -5.03961       -2.69062        0.72396
C         -5.29472       -0.01588       -1.35267
H         -4.79000        0.45355       -2.19979
C         -6.61078       -1.21603        0.76766
H         -7.13627       -1.69817        1.59551
C         -6.47705        0.55977       -0.87534
C         -7.01019        1.81339       -1.50596
H         -6.28716        2.63931       -1.40948
H         -7.19746        1.67113       -2.58191
H         -7.95169        2.13331       -1.03824
C         -7.12841       -0.05191        0.20019
H         -8.05430        0.38059        0.58875
H         -3.27631       -1.24997        1.54267
H         -1.56436       -1.04496        1.93290
C         -2.56206        0.78247        1.43701
C         -1.44434        1.62390        1.47319
H         -0.44457        1.18889        1.40699
C         -3.83847        1.35161        1.51626
H         -4.71489        0.69926        1.49263
C         -1.60925        3.00412        1.55648
H         -0.73079        3.65488        1.57433
C         -4.02038        2.73496        1.59894
C         -5.39893        3.32310        1.69416
H         -6.16783        2.57446        1.45759
H         -5.59965        3.69964        2.71075
H         -5.52224        4.17353        1.00586
C         -2.88625        3.55832        1.60725
H         -3.00723        4.64388        1.66421
C          1.38485       -0.87306        2.55281
H          0.29490       -0.90266        2.73024
H          1.74958       -1.90952        2.65355
C          2.06937        0.00621        3.57948
H          1.82246       -0.39508        4.57796
H          3.16274       -0.10205        3.47280
C          1.69726        1.47955        3.50076
H          0.61038        1.59169        3.65654
H          1.90032        1.83702        2.47864
C          2.45675        2.33497        4.50107
H          2.26942        2.00977        5.53730
H          3.54402        2.27622        4.32897
H          2.16756        3.39439        4.42846
H          3.24570       -2.72242        1.07533
H          3.24944       -3.03252       -0.64977
C          4.51582       -1.38713       -0.06563
C          5.40577       -1.64294       -1.11533
H          5.19937       -2.46122       -1.81088
C          4.80650       -0.34080        0.81512
H          4.10371       -0.11603        1.61790
C          6.55413       -0.87023       -1.26879
H          7.24902       -1.08488       -2.08480
C          5.94460        0.45497        0.66726
C          6.18400        1.61012        1.59445
H          5.56831        2.47232        1.28984
H          5.90748        1.36062        2.62992
H          7.23652        1.92776        1.58617
C          6.82230        0.17208       -0.38495
H          7.72349        0.77785       -0.51363
H          2.14367       -0.77592       -2.27541
H          0.73778        0.08341       -1.63400
C          2.61007        1.06604       -1.24585
C          2.19625        2.07481       -0.36772
H          1.28415        1.93583        0.21219
C          3.77470        1.26934       -1.99107
H          4.10755        0.48758       -2.67880
C          2.94800        3.23758       -0.22801
H          2.61935        4.01516        0.46680
C          4.54160        2.43114       -1.86654
C          5.77777        2.62901       -2.69499
H          5.57537        3.28316       -3.55964
H          6.58052        3.10234       -2.10980
H          6.15784        1.67232       -3.07915
C          4.11548        3.41512       -0.96748
H          4.70270        4.33058       -0.85043
