84
Cat156.ts34.5.log	Energy: -1740733.6752248
C         -0.87644       -3.72942       -0.13300
H         -0.65324       -4.38795        0.71041
H         -1.93941       -3.64407       -0.37762
C          0.08574       -3.62011       -1.17225
H          1.04654       -4.13582       -1.08977
H         -0.27135       -3.53994       -2.20448
H          0.29111       -1.98749       -1.41643
Rh         0.10297       -1.83453        0.18757
O         -1.73785        0.24922       -1.66550
C         -3.36057       -1.38250       -0.24705
C         -2.14147        0.85569        0.99137
O          2.21491        0.63780        1.25463
C          3.46868       -1.09306       -0.37561
C          1.70124        0.94356       -1.27346
P          1.82166       -0.37144       -0.01064
P         -1.75697       -0.50265       -0.18590
C          0.28211       -2.24467        2.02657
O          0.32555       -2.53560        3.14087
C         -2.56718        1.33898       -2.03412
H         -2.81522        1.19286       -3.09962
H         -3.52252        1.32054       -1.47988
C         -1.84827        2.65801       -1.84820
H         -1.63430        2.81004       -0.77787
H         -0.87088        2.57392       -2.34573
C         -2.60735        3.85399       -2.40044
H         -3.55528        3.98162       -1.84799
H         -2.89356        3.65616       -3.44919
C         -1.79171        5.13598       -2.33320
H         -1.50100        5.36679       -1.29571
H         -0.86543        5.04166       -2.92244
H         -2.35205        5.99887       -2.72356
C         -3.90816       -1.91645        0.92876
H         -3.42606       -1.72009        1.89076
C         -3.97249       -1.67575       -1.47022
H         -3.53733       -1.28805       -2.39395
C         -5.05631       -2.69909        0.88989
H         -5.49673       -3.11705        1.79696
C         -5.12348       -2.46085       -1.52385
H         -5.61488       -2.69405       -2.47027
C         -5.65231       -2.95925       -0.34094
F         -6.75162       -3.70908       -0.38309
C         -3.43748        1.35018        1.19852
H         -4.28939        0.87066        0.71096
C         -1.07300        1.47036        1.65802
H         -0.05834        1.08957        1.52023
C         -3.66306        2.44461        2.02813
H         -4.66644        2.83917        2.19831
C         -1.28258        2.56821        2.48673
H         -0.45795        3.05617        3.00827
C         -2.57731        3.04379        2.65672
F         -2.78493        4.09183        3.44873
C          2.60728        0.09710        2.50445
H          1.71941       -0.28254        3.03838
H          3.29478       -0.75374        2.35100
C          3.28774        1.18156        3.30967
H          3.65288        0.72891        4.24781
H          4.18095        1.52257        2.75788
C          2.38780        2.36844        3.62396
H          1.50186        2.00810        4.17666
H          2.00603        2.78414        2.67632
C          3.08598        3.45774        4.42077
H          3.45299        3.07537        5.38680
H          3.95568        3.85635        3.87409
H          2.41180        4.30138        4.63261
C          4.54522       -0.29437       -0.78568
H          4.39931        0.77714       -0.94421
C          3.66862       -2.46214       -0.17866
H          2.81807       -3.06731        0.15138
C          5.79818       -0.85517       -1.00311
H          6.64969       -0.25477       -1.32868
C          4.91885       -3.03828       -0.39164
H          5.09557       -4.10507       -0.24321
C          5.96579       -2.22324       -0.80316
F          7.16307       -2.76198       -1.01389
C          1.95130        2.28570       -0.96678
H          2.20370        2.56053        0.05794
C          1.37092        0.59476       -2.58791
H          1.14276       -0.44555       -2.83155
C          1.87655        3.26563       -1.95444
H          2.05385        4.31899       -1.73045
C          1.31231        1.56003       -3.58674
H          1.05365        1.30538       -4.61583
C          1.56205        2.88693       -3.25217
F          1.46711        3.82355       -4.19582
