74
Cat178.ts34.5.log	Energy: -1158746.6194777
C          1.34089       -3.07133        0.75213
H          1.11938       -3.90927        0.08565
H          2.40957       -2.90072        0.91447
C          0.43677       -2.81740        1.82976
H         -0.47853       -3.41099        1.91419
H          0.85729       -2.55422        2.80758
H          0.19234       -1.23061        1.77387
Rh         0.18248       -1.37354        0.15081
O          2.46523        1.09121        1.17803
C          3.60885       -0.64351       -0.42715
C          1.65922        1.48232       -1.38196
O         -1.48949        1.31099       -0.68995
C         -3.21062       -0.92846       -0.61074
C         -2.21932        0.51850        1.85740
P         -1.71692       -0.09822        0.16629
P          1.95362        0.14935       -0.11086
C         -0.20938       -2.10396       -1.53860
O         -0.45502       -2.53011       -2.58370
C          1.62710        1.42343        2.26852
H          0.95693        0.56241        2.46314
C          0.77424        2.63783        1.94263
H          0.11429        2.43030        1.08772
H          1.41186        3.49931        1.68983
H          0.14309        2.91562        2.80129
C          2.52333        1.63750        3.47141
H          3.12128        0.73579        3.66741
H          3.21547        2.47477        3.29111
H          1.92742        1.86598        4.36787
H          3.67731       -1.27995        0.47435
C          3.58721       -1.56249       -1.64198
H          4.47375       -2.21652       -1.63948
H          2.69068       -2.19919       -1.65236
H          3.60804       -0.98946       -2.58100
C          4.81835        0.28255       -0.41954
H          4.77480        0.99171        0.41807
H          5.74255       -0.31065       -0.32136
H          4.89795        0.85355       -1.35559
H          0.70714        1.87705       -0.99122
C          2.67139        2.61931       -1.42205
H          2.22922        3.49691       -1.92319
H          2.98016        2.92226       -0.41212
H          3.57403        2.34611       -1.98745
C          1.35295        0.92528       -2.76536
H          0.61527        0.11228       -2.72060
H          0.94042        1.72142       -3.40693
H          2.25544        0.54324       -3.26602
C         -2.37513        2.23733       -1.31209
H         -3.33299        2.26743       -0.76688
C         -2.62330        1.83374       -2.75425
H         -3.11843        0.85570       -2.82417
H         -1.66681        1.76905       -3.29398
H         -3.26155        2.57420       -3.25968
C         -1.72523        3.60476       -1.21331
H         -1.54544        3.88176       -0.16451
H         -0.75656        3.60557       -1.73613
H         -2.36635        4.37303       -1.67065
H         -2.89622       -0.94334       -1.67040
C         -3.33013       -2.38644       -0.16368
H         -4.00871       -2.92607       -0.84307
H         -2.35419       -2.89090       -0.16783
H         -3.74829       -2.46528        0.85035
C         -4.57178       -0.24587       -0.50771
H         -4.58075        0.78604       -0.87980
H         -5.31045       -0.81077       -1.09944
H         -4.93635       -0.23573        0.53017
H         -1.23241        0.79778        2.26017
C         -3.09857        1.76046        1.91940
H         -3.22322        2.06895        2.97052
H         -2.64488        2.60646        1.38604
H         -4.10450        1.59062        1.51023
C         -2.75530       -0.61585        2.72395
H         -2.12677       -1.51554        2.64950
H         -2.77535       -0.30500        3.78062
H         -3.78375       -0.89149        2.44605
