68
Cat19.ts34.5.log	Energy: -1687218.3427662
C          0.03806       -3.17188        2.22612
H          0.67701       -3.06747        3.10652
H         -0.97110       -3.53333        2.44398
C          0.64806       -3.53272        0.99154
H          1.73652       -3.60863        0.91999
H          0.12268       -4.23171        0.33191
H          0.03544       -2.46989       -0.10285
Rh         0.15403       -1.35368        1.07252
C         -3.32698       -2.14425        1.51249
O         -2.74113        0.36776        1.73750
O         -2.60448       -0.66447       -0.64429
C          0.09590        0.87998       -1.71805
O          2.07631        1.11102        0.11983
O          2.03947       -0.82686       -1.62303
P          1.06149       -0.04966       -0.50569
P         -2.08267       -0.95408        0.92461
C          1.03721       -0.44197        2.49099
O          1.58935        0.09284        3.34371
H         -3.17627       -3.09572        0.98234
H         -3.15767       -2.30372        2.58652
H         -4.35494       -1.79163        1.35397
C         -2.06752        1.55859        1.75430
C         -2.20343        2.45572        0.69283
H         -2.84267        2.19507       -0.15257
C         -1.25442        1.87518        2.84216
H         -1.15902        1.15954        3.65923
C         -1.51934        3.66902        0.71563
H         -1.60197        4.38678       -0.10244
C         -0.56469        3.08333        2.86869
H          0.09224        3.34418        3.69998
C         -0.70567        3.96215        1.80255
F         -0.01823        5.10849        1.80950
C         -3.88518       -0.60701       -1.11797
C         -4.90556        0.10662       -0.48004
H         -4.70280        0.61609        0.46224
C         -4.14485       -1.26419       -2.32361
H         -3.33379       -1.81355       -2.80503
C         -6.17785        0.15283       -1.04717
H         -6.98947        0.70154       -0.56589
C         -5.41215       -1.21206       -2.89461
H         -5.63318       -1.71681       -3.83681
C         -6.41769       -0.50337       -2.24716
F         -7.63406       -0.45328       -2.78917
H         -0.40144        1.70524       -1.19038
H          0.73427        1.27156       -2.52114
H         -0.67417        0.20827       -2.11934
C          2.58967        2.17273       -0.58128
C          2.26305        3.45950       -0.15334
H          1.60123        3.58379        0.70261
C          3.44740        1.98803       -1.66803
H          3.69925        0.97797       -1.99225
C          2.78525        4.56819       -0.81228
H          2.54061        5.58197       -0.49050
C          3.96755        3.09651       -2.33243
H          4.63954        2.98146       -3.18476
C          3.63015        4.37283       -1.89843
F          4.12997        5.43115       -2.53591
C          2.84613       -1.86858       -1.25924
C          3.70420       -1.78232       -0.15979
H          3.73686       -0.86520        0.43064
C          2.79446       -3.03494       -2.02155
H          2.11155       -3.07735       -2.87172
C          4.50391       -2.87085        0.17951
H          5.17966       -2.83145        1.03564
C          3.59990       -4.12152       -1.69083
H          3.57916       -5.04490       -2.27228
C          4.44168       -4.02777       -0.58869
F          5.20892       -5.06851       -0.26427
