42
Cat121.ts34.5.log	Energy: -1051689.6583808
C         -1.02749       -2.48183       -1.31885
H         -0.75343       -3.42355       -0.83696
H         -2.10068       -2.30075       -1.41894
C         -0.14800       -1.93720       -2.29170
H          0.81098       -2.42081       -2.49417
H         -0.58155       -1.43959       -3.16553
H          0.03102       -0.34821       -1.84928
Rh         0.02913       -0.88034       -0.32138
O         -1.81609        1.96190        0.25913
O         -2.99415        0.17326       -1.14870
O         -2.85233        0.00922        1.29986
O          1.69816        1.74292        0.99497
O          3.20641       -0.10122        0.46854
O          2.17765        1.35081       -1.38183
P          1.76653        0.49461       -0.06063
P         -1.87188        0.32865        0.02499
C          0.44838       -1.96657        1.17792
O          0.70617       -2.61434        2.09395
C         -1.07551        2.78066       -0.61873
H         -0.24898        2.23114       -1.09804
H         -1.73050        3.19019       -1.40578
H         -0.64841        3.61094       -0.03899
C         -4.28020        0.75279       -1.02933
H         -4.91894        0.15079       -0.36578
H         -4.21844        1.77635       -0.62708
H         -4.72061        0.78199       -2.03539
C         -2.34605        0.03522        2.61074
H         -1.46269       -0.61862        2.71501
H         -2.07394        1.06044        2.91240
H         -3.13598       -0.33478        3.27853
C          1.37556        1.49429        2.34330
H          0.48812        0.84474        2.42428
H          2.21904        1.01770        2.86879
H          1.15344        2.46089        2.81511
C          3.70927       -1.32331       -0.02452
H          2.88935       -2.02469       -0.25745
H          4.30780       -1.16065       -0.93626
H          4.35146       -1.76232        0.75150
C          3.20713        2.32314       -1.33542
H          2.85515        3.23876       -0.83715
H          4.08844        1.94221       -0.79628
H          3.48367        2.55087       -2.37348
