82
Cat143.ts34.5.log	Energy: -1631215.2237102
C         -0.66038       -3.27275       -0.80531
H         -0.69825       -3.99286        0.01561
H         -1.58667       -3.18925       -1.38022
C          0.58774       -3.04044       -1.44400
H          1.49729       -3.50701       -1.05529
H          0.60010       -2.89165       -2.52950
H          0.72406       -1.40949       -1.50112
Rh         0.06023       -1.39541       -0.02478
O         -1.15293        1.26297       -1.69680
O         -3.01403       -0.31154       -1.30123
O         -2.04127        0.96473        0.70123
O          1.25988        1.18321        1.62990
O          3.09862       -0.39774        1.16199
O          2.14306        0.96720       -0.78124
P          1.63355        0.07381        0.51838
P         -1.53081        0.09989       -0.63015
C         -0.36309       -1.93035        1.75837
O         -0.68345       -2.24871        2.81363
C         -2.02225        2.06095       -2.48536
H         -2.94054        1.51398       -2.73868
H         -2.28478        2.98771       -1.95384
H         -1.47781        2.31019       -3.40683
C         -3.69714       -1.42014       -0.88597
C         -3.76589       -1.77674        0.46062
H         -3.28621       -1.14356        1.20964
C         -4.32275       -2.20121       -1.86018
H         -4.25197       -1.89988       -2.90679
C         -4.43336       -2.94334        0.85300
C         -4.47500       -3.32145        2.30514
H         -3.47195       -3.26966        2.75557
H         -5.11945       -2.63160        2.87409
H         -4.86611       -4.33861        2.44643
C         -5.00392       -3.34886       -1.46990
H         -5.49412       -3.96782       -2.22538
C         -5.05110       -3.72576       -0.12688
H         -5.57505       -4.63961        0.16429
C         -2.62876        2.19833        0.63423
C         -3.99128        2.31836        0.37188
H         -4.58144        1.41145        0.22284
C         -1.83272        3.32664        0.83719
H         -0.77109        3.18733        1.04881
C         -4.58518        3.58303        0.28510
C         -6.05767        3.70922        0.02059
H         -6.38502        3.01499       -0.76785
H         -6.64084        3.46907        0.92488
H         -6.32673        4.72968       -0.28630
C         -2.41957        4.58471        0.74845
H         -1.80848        5.47856        0.89719
C         -3.78080        4.71359        0.46819
H         -4.22875        5.70811        0.39631
C          2.13049        1.91654        2.47769
H          3.01701        1.32387        2.74126
H          2.44495        2.85083        1.98942
H          1.56176        2.15187        3.38748
C          3.70976       -1.54894        0.73924
C          3.94968       -1.78063       -0.61401
H          3.64393       -1.02917       -1.34560
C          4.08840       -2.48430        1.70141
H          3.87737       -2.28010        2.75226
C          4.56528       -2.96673       -1.03165
C          4.78521       -3.22057       -2.49493
H          5.30430       -2.37647       -2.97447
H          5.38164       -4.12806       -2.66240
H          3.82455       -3.34770       -3.02028
C          4.71402       -3.65652        1.29051
H          5.01609       -4.39645        2.03556
C          4.94737       -3.90018       -0.06338
H          5.43265       -4.82918       -0.37315
C          2.67648        2.22501       -0.66885
C          4.03392        2.39186       -0.40891
H          4.66193        1.50589       -0.29119
C          1.82961        3.32254       -0.82367
H          0.77338        3.14379       -1.03281
C          4.57447        3.67703       -0.28062
C          6.04195        3.85760       -0.02024
H          6.40716        3.14424        0.73368
H          6.62765        3.68600       -0.93842
H          6.26717        4.87428        0.33115
C          2.36333        4.60041       -0.69184
H          1.71290        5.47175       -0.80162
C          3.72038        4.77722       -0.41766
H          4.12571        5.78691       -0.31232
