68
Cat147.ts34.5.log	Energy: -1109449.6584619
C         -3.63774       -0.94350        0.02900
H         -4.00410       -1.38783        0.95852
H         -4.13247       -0.00211       -0.23339
C         -3.24880       -1.82728       -1.02800
H         -3.24410       -2.90646       -0.85160
H         -3.53889       -1.56920       -2.05282
H         -1.82871       -1.21784       -1.54665
Rh        -1.49511       -0.94916        0.02724
O          0.34077        1.71912       -0.75872
C         -2.24888        2.02725       -1.72111
C         -1.55429        2.45588        1.06056
O          1.92509       -1.32616        0.27425
C          0.63995       -3.57979       -0.57671
C          1.11558       -1.15487       -2.22146
P          0.55712       -1.73753       -0.57486
P         -1.22322        1.31412       -0.35166
C         -1.42260       -1.39622        1.86089
O         -1.41338       -1.62451        2.99402
C          0.84541        2.99770       -1.08346
H          0.79619        3.13393       -2.18067
H          0.23933        3.79781       -0.62540
C          2.27949        3.10507       -0.60361
H          2.68250        4.07583       -0.94343
H          2.28199        3.13675        0.49897
C          3.16846        1.96436       -1.07717
H          3.15172        1.92205       -2.18140
H          2.73320        1.01521       -0.72832
C          4.60177        2.08058       -0.58679
H          5.08177        3.00833       -0.93890
H          4.64420        2.08680        0.51463
H          5.21507        1.23519       -0.93422
H         -3.22078        1.51462       -1.61858
C         -2.46130        3.52841       -1.84989
H         -1.52452        4.07040       -2.04009
H         -2.91635        3.95708       -0.94415
H         -1.80056        1.60413       -2.63643
H         -3.14054        3.75119       -2.68800
H         -1.37536        3.50383        0.76835
C         -2.95121        2.28301        1.63728
H         -3.12031        1.23809        1.93673
H         -3.73390        2.55091        0.90967
H         -0.79528        2.19507        1.81487
H         -3.09281        2.92127        2.52249
C          2.04957       -1.62581        1.65196
H          1.07449       -1.91850        2.07807
H          2.72791       -2.49084        1.76153
C          2.59537       -0.42741        2.39807
H          2.85851       -0.74896        3.42128
H          3.53953       -0.11780        1.91562
C          1.62551        0.74352        2.44734
H          0.70491        0.42201        2.96388
H          1.32114        0.98986        1.41778
C          2.20026        1.96991        3.13580
H          2.46622        1.75955        4.18447
H          3.11549        2.32130        2.63189
H          1.48365        2.80627        3.13902
H         -0.18471       -3.90298       -1.23433
C          1.95509       -4.26235       -0.92019
H          2.80064       -3.78868       -0.39931
H          2.16866       -4.22676       -1.99730
H          0.30853       -3.85036        0.44005
H          1.93037       -5.32333       -0.62717
H          0.89637       -0.07650       -2.17783
C          2.56028       -1.38545       -2.63780
H          2.76889       -2.43567       -2.88031
H          3.25022       -1.08191       -1.83858
H          0.39736       -1.58645       -2.93918
H          2.79502       -0.78780       -3.53228
