78
Cat131.ts34.5.log	Energy: -1442458.0061099
C         -0.99186       -3.16840       -1.28506
H         -1.04826       -3.99493       -0.57177
H         -1.92667       -2.97540       -1.82072
C          0.25121       -2.94126       -1.95156
H          1.12964       -3.52808       -1.66797
H          0.23592       -2.68948       -3.01813
H          0.47220       -1.32560       -1.83850
Rh        -0.10896       -1.46560       -0.32530
O         -2.11273        0.79626       -2.06241
C         -3.56601       -0.62521       -0.29571
C         -1.85173        1.49412        0.44926
O          1.21386        0.65308        1.76421
C          3.14890       -0.89765        0.68091
C          2.07582        1.30201       -0.77603
P          1.55632       -0.07477        0.31817
P         -1.86538        0.00139       -0.60311
C         -0.15092       -2.25090        1.40342
O         -0.17461       -2.69527        2.46551
C         -2.08999        0.01532       -3.22899
H         -1.15158       -0.56252       -3.30561
H         -2.94138       -0.68839       -3.26473
H         -2.16246        0.69687       -4.08847
C         -3.75705       -1.80607        0.42136
H         -2.88712       -2.36811        0.76926
C         -4.67588        0.09069       -0.76258
H         -4.51244        1.01539       -1.32349
C         -5.05301       -2.25445        0.67968
H         -5.20670       -3.17617        1.24636
C         -5.97682       -0.35346       -0.52262
C         -7.16618        0.41214       -1.02675
H         -7.83269        0.70324       -0.19944
H         -6.86073        1.32795       -1.55161
H         -7.76472       -0.19447       -1.72525
C         -6.14848       -1.53767        0.21044
H         -7.16051       -1.90073        0.41258
C         -1.87370        2.79070       -0.07266
H         -1.95584        2.93701       -1.15053
C         -1.74067        1.30395        1.82865
H         -1.68678        0.28604        2.22585
C         -1.77845        3.87811        0.79392
H         -1.78410        4.89421        0.39107
C         -1.65694        2.38594        2.70686
C         -1.54672        2.15282        4.18598
H         -2.52681        1.89806        4.62209
H         -0.86912        1.31338        4.40418
H         -1.17420        3.04467        4.71035
C         -1.67105        3.67876        2.16853
H         -1.58977        4.54005        2.83785
C          1.87117        1.80193        2.24106
H          2.95980        1.64661        2.33976
H          1.68939        2.66888        1.58607
H          1.45372        2.02042        3.23394
C          3.49267       -1.21999        1.99547
H          2.83883       -0.91712        2.81622
C          3.97270       -1.31841       -0.37110
H          3.69558       -1.07531       -1.40189
C          4.66053       -1.94075        2.24528
H          4.93288       -2.19154        3.27355
C          5.14258       -2.04104       -0.13381
C          6.01894       -2.49372       -1.26580
H          6.03741       -3.59324       -1.33686
H          5.66617       -2.10149       -2.22980
H          7.05957       -2.16232       -1.12401
C          5.47740       -2.34435        1.19448
H          6.39050       -2.90937        1.40254
C          1.16854        1.80841       -1.70976
H          0.18266        1.35423       -1.81700
C          3.34276        1.89282       -0.66302
H          4.06410        1.48927        0.05266
C          1.52714        2.89410       -2.50720
H          0.81399        3.28782       -3.23550
C          3.71654        2.97848       -1.45752
C          5.07376        3.60657       -1.32412
H          4.99904        4.63548       -0.93635
H          5.71485        3.03562       -0.63810
H          5.58539        3.66507       -2.29743
C          2.78609        3.47212       -2.38265
H          3.05940        4.32019       -3.01742
