94
Cat194.ts34.5.log	Energy: -1729831.7799269
C          1.27938       -0.57325       -3.57552
H          1.24559        0.22229       -4.32400
H          2.27859       -0.95395       -3.34871
C          0.15794       -1.43736       -3.46093
H         -0.72879       -1.25284       -4.07435
H          0.33107       -2.49828       -3.25210
H         -0.20062       -1.47099       -1.83041
Rh         0.23042        0.09063       -1.81655
O          1.78646       -1.68268        0.66864
O          3.35752       -0.76773       -1.04441
O          2.32211        0.71033        0.80410
O         -1.32248        1.91639        0.39195
O         -3.04544        0.57514       -0.69478
O         -1.41311       -0.62679        0.84805
P         -1.41498        0.49199       -0.37106
P          1.89013       -0.42101       -0.34539
C          0.28743        1.90475       -2.41009
O          0.32421        2.99119       -2.77712
C          1.49862       -1.66697        2.07701
H          0.90672       -0.76422        2.29619
C          2.79463       -1.63254        2.86074
H          3.36534       -0.72357        2.63021
H          3.42039       -2.50225        2.60772
H          2.58496       -1.65366        3.94130
C          0.65954       -2.89310        2.36079
H         -0.24965       -2.88043        1.74661
H          1.22793       -3.80817        2.13363
H          0.36524       -2.91865        3.42035
C          4.43336       -1.24294       -0.32830
C          5.25220       -0.35328        0.36252
H          5.02139        0.71291        0.33587
C          4.68675       -2.62261       -0.34006
C          3.78875       -3.54974       -1.09912
H          2.77503       -3.53805       -0.66987
H          3.69683       -3.23887       -2.15147
H          4.17100       -4.57923       -1.07277
C          6.34677       -0.83669        1.07642
H          6.98864       -0.14054        1.62111
C          5.79345       -3.07911        0.38154
H          6.01126       -4.15075        0.38566
C          6.61566       -2.20315        1.08970
H          7.47172       -2.59035        1.64694
C          2.38790        2.05438        0.57058
C          2.95837        2.56901       -0.59290
H          3.34910        1.88529       -1.34893
C          1.88313        2.89482        1.57449
C          1.27026        2.29708        2.80165
H          0.40207        1.67793        2.52771
H          1.98068        1.63910        3.32543
H          0.93650        3.07720        3.49912
C          3.01326        3.94925       -0.77972
H          3.44567        4.35165       -1.69825
C          1.96818        4.27286        1.36806
H          1.58721        4.94409        2.14304
C          2.51891        4.80384        0.20083
H          2.56400        5.88619        0.06197
C         -2.33991        2.92413        0.55498
H         -3.27507        2.42134        0.84736
C         -2.54275        3.66676       -0.75007
H         -2.87440        2.98260       -1.54306
H         -1.60503        4.14626       -1.06799
H         -3.31063        4.44526       -0.62690
C         -1.87036        3.83178        1.67046
H         -1.74769        3.27998        2.61302
H         -0.90373        4.28569        1.40721
H         -2.60464        4.63369        1.83622
C         -3.84821       -0.41661       -1.19390
C         -3.43908       -1.24359       -2.23713
H         -2.44749       -1.09935       -2.66524
C         -5.12530       -0.53273       -0.62071
C         -5.55332        0.39793        0.47064
H         -4.87100        0.34325        1.33240
H         -5.54804        1.44271        0.12146
H         -6.56677        0.15611        0.81751
C         -4.29634       -2.23708       -2.70599
H         -3.97107       -2.88955       -3.51960
C         -5.96344       -1.53555       -1.11443
H         -6.95970       -1.64501       -0.67733
C         -5.55949       -2.39002       -2.14069
H         -6.23646       -3.16692       -2.50263
C         -2.36091       -0.77912        1.82954
C         -2.50338        0.19448        2.81928
H         -1.86215        1.07475        2.78292
C         -3.12548       -1.95556        1.84133
C         -2.95653       -3.01932        0.79902
H         -3.82877       -3.05141        0.12708
H         -2.06886       -2.83763        0.18090
H         -2.86138       -4.00974        1.26904
C         -3.44522        0.02551        3.82945
H         -3.55777        0.79090        4.60063
C         -4.06118       -2.09923        2.87307
H         -4.67026       -3.00707        2.90049
C         -4.23243       -1.12512        3.85294
H         -4.97438       -1.26887        4.64148
