80
Cat10.ts34.5.log	Energy: -1536765.1507620
C          0.78138       -1.55099        2.42883
H          0.69334       -2.60149        2.71815
H          1.79101       -1.13684        2.51135
C         -0.32777       -0.69201        2.64318
H         -1.26459       -1.08828        3.04469
H         -0.12802        0.34507        2.93399
H         -0.60894        0.09655        1.15597
Rh        -0.15372       -1.30994        0.49785
C          1.52258        0.80139       -1.96692
C          2.13954        1.29848        0.76540
C          3.26552       -0.95427       -0.55913
C         -2.03195       -2.03613       -2.37956
C         -3.57228       -1.05199       -0.20544
C         -1.95152        0.74866       -1.68358
P         -1.89149       -0.92067       -0.93006
P          1.66663       -0.07697       -0.35472
C         -0.14981       -3.15916        0.14156
O         -0.18709       -4.29191       -0.08461
H          1.33881        0.04967       -2.74800
H          0.65784        1.47767       -1.94191
H          2.42774        1.37455       -2.21444
C          3.16977        1.17811        1.71138
H          3.79958        0.28520        1.71601
C          1.36012        2.45999        0.79597
H          0.53241        2.57843        0.09180
C          3.41433        2.18129        2.63938
H          4.21572        2.08918        3.37507
C          1.60061        3.47966        1.71545
H          0.97322        4.37151        1.69691
C          2.63463        3.34407        2.64974
O          2.94641        4.26831        3.58287
C          2.19295        5.44434        3.64276
H          1.12765        5.24172        3.85454
H          2.60780        6.04448        4.46275
H          2.26147        6.02695        2.70640
C          3.34869       -2.32557       -0.28621
H          2.44978       -2.84798        0.04976
C          4.42469       -0.29514       -0.98176
H          4.39919        0.77941       -1.18345
C          4.54325       -3.01572       -0.43524
H          4.61246       -4.08465       -0.22521
C          5.63207       -0.97218       -1.13703
H          6.51422       -0.42283       -1.46700
C          5.69602       -2.34548       -0.86378
O          6.81222       -3.09032       -0.98218
C          7.99560       -2.47495       -1.40560
H          8.31892       -1.68087       -0.70929
H          8.76519       -3.25686       -1.43212
H          7.89497       -2.04014       -2.41589
H         -2.14120       -3.05886       -1.99296
H         -2.90028       -1.79616       -3.01062
H         -1.10495       -1.99287       -2.96944
C         -4.70095       -0.48368       -0.81775
H         -4.58765        0.09776       -1.73720
C         -3.74718       -1.77028        0.97663
H         -2.86212       -2.20126        1.45579
C         -5.96105       -0.63591       -0.26308
H         -6.84600       -0.19473       -0.72587
C         -5.01071       -1.93710        1.54435
H         -5.10951       -2.50604        2.46914
C         -6.12748       -1.36708        0.92394
O         -7.38779       -1.46045        1.39027
C         -7.61985       -2.17923        2.56900
H         -7.08563       -1.74022        3.43015
H         -8.69946       -2.13126        2.75982
H         -7.32165       -3.23792        2.47025
C         -1.88266        0.98477       -3.06297
H         -1.83866        0.14991       -3.76479
C         -2.00536        1.85598       -0.83162
H         -2.05308        1.69701        0.24945
C         -1.84807        2.27790       -3.56908
H         -1.78265        2.46570       -4.64237
C         -1.98282        3.15869       -1.32263
H         -2.03021        3.99329       -0.62255
C         -1.89353        3.37824       -2.70439
O         -1.84879        4.59514       -3.27913
C         -1.87161        5.73053       -2.46048
H         -1.01018        5.75540       -1.76954
H         -1.81611        6.60042       -3.12700
H         -2.80247        5.79361       -1.86962
