62
Cat140.ts34.5.log	Energy: -1060144.6282892
C         -1.10978       -2.90933       -0.79746
H         -1.23373       -3.64719       -0.00032
H         -2.02968       -2.69183       -1.34969
C          0.13149       -2.89361       -1.50936
H          0.94313       -3.55211       -1.18707
H          0.10681       -2.76010       -2.59666
H          0.52489       -1.30243       -1.58629
Rh        -0.03764       -1.21266       -0.05893
O         -1.42835        1.51412       -1.69058
C         -3.37266       -0.16648       -0.81260
C         -1.88708        1.61553        0.89182
O          1.34725        1.22900        1.64688
C          3.30953       -0.47635        0.72959
C          1.97197        1.43847       -0.99662
P          1.65298        0.23128        0.34853
P         -1.65171        0.39366       -0.45254
C         -0.07711       -1.79217        1.74553
O         -0.09641       -2.09675        2.85755
C         -1.13666        1.04110       -2.97646
H         -0.36821        0.24582       -2.94890
H         -2.03427        0.63909       -3.48129
H         -0.75657        1.88463       -3.57183
H         -3.97936        0.70686       -1.10500
H         -3.30878       -0.82117       -1.69900
C         -4.00388       -0.92791        0.34636
H         -4.16556       -0.23803        1.19225
H         -3.28784       -1.68514        0.70907
C         -5.31983       -1.59323       -0.02540
H         -6.05959       -0.85486       -0.37424
H         -5.17845       -2.32667       -0.83557
H         -5.75805       -2.12595        0.83235
H         -2.13776        1.01796        1.78548
H         -0.87893        2.01332        1.09449
C         -2.89108        2.73459        0.65726
H         -3.90378        2.31237        0.54012
H         -2.65388        3.22859       -0.29835
C         -2.89767        3.75354        1.78696
H         -3.15367        3.28325        2.75016
H         -1.90699        4.22140        1.90454
H         -3.62714        4.55755        1.60357
C          2.28317        1.65629        2.60201
H          2.68121        0.81518        3.19398
H          3.13022        2.20625        2.15748
H          1.75626        2.33533        3.28795
H          4.03842        0.31901        0.95842
H          3.17394       -1.07303        1.64758
C          3.82415       -1.36932       -0.39322
H          3.99669       -0.76243       -1.29896
H          3.03207       -2.09026       -0.65619
C          5.10227       -2.10478       -0.02256
H          5.91446       -1.40350        0.22798
H          4.94517       -2.75501        0.85268
H          5.45358       -2.73934       -0.85035
H          2.22693        0.83126       -1.88316
H          0.97998        1.87099       -1.21111
C          2.99875        2.53469       -0.75700
H          3.98127        2.09259       -0.51713
H          2.69705        3.11967        0.12709
C          3.14196        3.46446       -1.95312
H          3.47205        2.91373       -2.84847
H          2.18110        3.94445       -2.19748
H          3.87625        4.26170       -1.76148
