98
Cat199.ts34.5.log	Energy: -1355958.6355885
C          0.48400       -3.29391        0.65338
H          0.29761       -4.04232       -0.12115
H          1.51129       -3.27899        1.03137
C         -0.58022       -2.97849        1.55178
H         -1.56206       -3.43735        1.40492
H         -0.34012       -2.83193        2.61113
H         -0.64178       -1.35853        1.58326
Rh        -0.28117       -1.40334       -0.01019
O          2.67357       -0.81561        1.67251
C          3.03745       -1.12431       -0.89886
C          2.14244        1.38170        0.17746
O         -1.60818        1.28049       -1.46539
C         -3.53074       -0.57763       -0.86773
C         -2.44109        1.15423        1.13195
P         -1.92006        0.13030       -0.30551
P          1.81488       -0.43049        0.28362
C         -0.41964       -1.93276       -1.81510
O         -0.49788       -2.22105       -2.92910
C          2.08968       -0.71144        2.96015
H          0.98854       -0.66313        2.84606
C          2.57346        0.55439        3.64788
H          2.29080        1.45046        3.07813
H          3.67058        0.54049        3.73892
H          2.14275        0.64128        4.65731
C          2.45119       -1.96090        3.74084
H          2.07245       -2.86049        3.23522
H          3.54545       -2.05084        3.82356
H          2.02782       -1.92714        4.75610
H          2.63156       -0.92606       -1.90551
H          2.95256       -2.21303       -0.75637
C          4.47694       -0.65315       -0.76984
H          4.52649        0.43031       -0.97258
H          4.80690       -0.78655        0.27482
C          5.46307       -1.35923       -1.70584
H          5.07823       -1.25232       -2.73799
C          6.82738       -0.68156       -1.64258
H          6.75982        0.38648       -1.90298
H          7.54488       -1.15228       -2.33271
H          7.24947       -0.74960       -0.62587
C          5.58608       -2.84867       -1.40320
H          6.30582       -3.33288       -2.08138
H          4.62704       -3.37665       -1.51147
H          5.94041       -3.00752       -0.37074
H          3.19617        1.55032        0.45704
H          1.52356        1.84585        0.96006
C          1.82344        1.98569       -1.18206
H          2.34362        1.41401       -1.97003
H          0.74525        1.87309       -1.39117
C          2.23560        3.45531       -1.31927
H          3.32402        3.51023       -1.12593
C          1.99519        3.94469       -2.74283
H          2.52953        3.32149       -3.47669
H          2.33029        4.98527       -2.87508
H          0.92333        3.90467       -2.99714
C          1.54277        4.35781       -0.30353
H          1.84628        5.40819       -0.43417
H          1.78258        4.07310        0.73202
H          0.44796        4.31024       -0.41805
C         -2.57892        2.18625       -1.98672
H         -3.54150        2.04434       -1.46261
C         -2.77510        1.87924       -3.45886
H         -3.12647        0.84730       -3.59997
H         -1.81969        1.98766       -3.99424
H         -3.50996        2.56293       -3.91019
C         -2.11346        3.60729       -1.74007
H         -1.98836        3.79858       -0.66502
H         -1.14839        3.78491       -2.23632
H         -2.84374        4.32904       -2.13568
H         -3.33568       -0.95846       -1.88498
H         -4.29073        0.21570       -0.95142
C         -4.01735       -1.71363        0.02058
H         -3.17265       -2.40564        0.17356
H         -4.28307       -1.32605        1.02165
C         -5.20955       -2.49509       -0.53592
H         -4.91222       -2.87814       -1.53038
C         -5.51265       -3.69403        0.35522
H         -4.63218       -4.34644        0.46328
H         -6.33509       -4.30202       -0.05247
H         -5.81075       -3.36631        1.36540
C         -6.44807       -1.62484       -0.71854
H         -7.29471       -2.21433       -1.10333
H         -6.27495       -0.79936       -1.42546
H         -6.76072       -1.18329        0.24316
H         -2.90051        0.46403        1.85994
H         -3.23776        1.83871        0.79476
C         -1.28141        1.90591        1.76672
H         -0.55459        1.16218        2.13216
H         -0.75120        2.48399        0.98935
C         -1.66247        2.84839        2.91037
H         -2.26359        2.26812        3.63596
C         -0.40879        3.33974        3.62524
H          0.17879        2.50170        4.02993
H         -0.65639        4.01345        4.46008
H          0.24191        3.89724        2.93041
C         -2.50583        4.02600        2.43353
H         -2.79417        4.67613        3.27391
H         -3.43272        3.70245        1.93606
H         -1.93826        4.64394        1.71722
