82
Cat126.ts34.5.log	Energy: -1631122.0516879
C         -1.18373       -2.78783       -2.15556
H         -1.28417       -3.76574       -1.67686
H         -2.10927       -2.41274       -2.60397
C          0.06530       -2.47229       -2.77576
H          0.90661       -3.16363       -2.67380
H          0.05504       -1.96036       -3.74488
H          0.37606       -0.94978       -2.26888
Rh        -0.18311       -1.43925       -0.82311
O         -2.08085        1.28931       -1.85683
C         -3.56538       -0.43111       -0.41367
C         -1.68535        1.34477        0.72455
O          1.20052        0.09464        1.67394
C          3.10084       -1.25846        0.31689
C          2.13885        1.23098       -0.66215
P          1.55116       -0.31649        0.10942
P         -1.84459        0.14941       -0.64080
C         -0.22663       -2.63888        0.64920
O         -0.24719       -3.33874        1.56400
C         -2.18001        0.80424       -3.16987
H         -1.29813        0.19603       -3.44101
H         -3.08707        0.18850       -3.31006
H         -2.23877        1.67105       -3.84379
C         -4.64386        0.46067       -0.54008
H         -4.44598        1.50667       -0.78836
C         -3.83046       -1.76158       -0.09683
H         -2.99398       -2.45949       -0.00777
C         -5.94457        0.02686       -0.35511
H         -6.79401        0.70611       -0.45094
C         -5.13659       -2.21045        0.10666
H         -5.30819       -3.25698        0.35928
C         -6.20221       -1.31464       -0.02541
O         -7.49760       -1.64391        0.14096
C         -7.82062       -2.96307        0.48027
H         -7.37025       -3.26147        1.44341
H         -8.91341       -3.00647        0.57100
H         -7.49856       -3.67821       -0.29727
C         -1.73525        0.85895        2.04031
H         -1.92313       -0.20319        2.21919
C         -1.41769        2.69658        0.52016
H         -1.38387        3.08762       -0.49767
C         -1.53113        1.70388        3.11589
H         -1.57163        1.33756        4.14344
C         -1.19126        3.55681        1.59825
H         -0.97608        4.60770        1.40294
C         -1.24499        3.06164        2.90347
O         -1.03059        3.80358        4.01133
C         -0.73611        5.16219        3.86186
H         -1.55775        5.71043        3.36713
H         -0.59744        5.56907        4.87182
H          0.19140        5.32177        3.28291
C          1.92085        1.04765        2.41479
H          2.98295        0.76663        2.52951
H          1.86189        2.04564        1.95084
H          1.45496        1.09950        3.40877
C          3.98907       -1.43477       -0.75593
H          3.80353       -0.92405       -1.70507
C          3.35537       -1.93608        1.51001
H          2.65913       -1.83059        2.34556
C          5.10251       -2.24863       -0.62978
H          5.80156       -2.39023       -1.45622
C          4.47383       -2.75816        1.65033
H          4.64134       -3.27088        2.59777
C          5.35642       -2.91853        0.57716
O          6.46235       -3.68802        0.60842
C          6.75852       -4.39548        1.77915
H          5.95871       -5.11075        2.04065
H          7.68341       -4.95330        1.58492
H          6.92349       -3.72020        2.63756
C          3.40453        1.77809       -0.38425
H          4.09889        1.24012        0.26566
C          1.28949        1.93757       -1.51568
H          0.30443        1.53023       -1.75012
C          3.79598        2.98687       -0.93441
H          4.77799        3.41615       -0.72715
C          1.66835        3.15598       -2.07601
H          0.97339        3.67463       -2.73678
C          2.92814        3.69054       -1.78446
O          3.39035        4.85604       -2.27096
C          2.57215        5.60427       -3.12716
H          1.63207        5.90818       -2.63409
H          3.13899        6.50424       -3.39680
H          2.32539        5.04811       -4.04846
