70
Cat133.ts34.5.log	Energy: -1532606.2557523
C          0.16571       -3.46815       -1.56252
H          0.04263       -3.57238       -2.64322
H          1.18245       -3.60767       -1.18606
C         -0.93385       -3.79051       -0.72625
H         -1.89412       -4.06329       -1.17176
H         -0.73368       -4.28779        0.22915
H         -1.12795       -2.51903        0.26275
Rh        -0.68093       -1.56696       -0.97806
O          1.05448       -0.12449        1.66436
O          2.30296       -1.95741        0.40363
O          1.94599        0.38806       -0.60680
O         -3.88955       -0.73649       -1.26086
O         -2.90671       -0.25696        1.05721
O         -2.48294        1.26235       -0.97733
P         -2.48832       -0.34447       -0.55530
P          1.12525       -0.79819        0.16279
C         -0.46283       -0.85794       -2.72887
O         -0.29309       -0.41902       -3.77475
C          0.14325       -0.63131        2.61692
H         -0.85859       -0.77105        2.18079
H          0.49243       -1.59110        3.03466
H          0.08237        0.10463        3.43046
C          3.55933       -1.70212        0.89198
C          3.78487       -1.66545        2.26748
H          2.95427       -1.85137        2.94975
C          4.60589       -1.48662       -0.00431
H          4.39919       -1.52135       -1.07524
C          5.06256       -1.38046        2.74413
H          5.23980       -1.34479        3.82182
C          5.87749       -1.19797        0.48146
H          6.69198       -1.00871       -0.22131
C          6.10910       -1.13729        1.85553
H          7.10679       -0.90410        2.23367
C          3.01097        1.20175       -0.33258
C          3.40579        1.56754        0.95458
H          2.86140        1.18152        1.81390
C          3.69100        1.69383       -1.44756
H          3.34435        1.39754       -2.43915
C          4.50325        2.41120        1.11163
H          4.81975        2.68459        2.12121
C          4.78029        2.54203       -1.27520
H          5.31009        2.92201       -2.15230
C          5.19603        2.90324        0.00652
H          6.05485        3.56397        0.14277
C         -4.96964        0.11663       -1.61190
H         -5.65346        0.25109       -0.76076
H         -4.60449        1.09742       -1.94550
H         -5.50568       -0.37532       -2.43470
C         -4.12283        0.20304        1.49704
C         -4.38039        1.57196        1.58159
H         -3.61305        2.28552        1.27936
C         -5.09163       -0.72788        1.87205
H         -4.85775       -1.79083        1.79128
C         -5.62520        2.00429        2.03532
H         -5.83014        3.07559        2.09902
C         -6.33171       -0.28411        2.32421
H         -7.09239       -1.01261        2.61488
C         -6.60412        1.08211        2.40402
H         -7.57815        1.42757        2.75719
C         -1.36591        2.04806       -0.82612
C         -0.79511        2.61216       -1.96523
H         -1.22830        2.38595       -2.94093
C         -0.82554        2.29399        0.43632
H         -1.27181        1.82825        1.31591
C          0.32228        3.43303       -1.83559
H          0.77781        3.86633       -2.72900
C          0.29363        3.11521        0.55182
H          0.73095        3.29093        1.53675
C          0.86993        3.68839       -0.57903
H          1.76164        4.31112       -0.48347
