96
Cat16.ts34.5.log	Energy: -1824012.5959352
C          0.48884       -3.22639       -0.17313
H          0.21380       -3.82014       -1.04919
H          1.54016       -3.29859        0.12389
C         -0.49925       -2.97210        0.81021
H         -1.52234       -3.33048        0.67093
H         -0.18342       -2.92966        1.85886
H         -0.63125       -1.32434        1.02698
Rh        -0.20853       -1.21005       -0.52878
C          1.23321        0.74102        2.00691
C          3.03143       -1.15390        0.58317
C          2.57396        1.44570       -0.37315
C         -2.23282        1.15287       -2.20600
C         -3.79178       -0.42522       -0.53305
C         -1.98766        1.39386        0.73659
P         -2.03861        0.18615       -0.65785
P          1.62638        0.01850        0.35859
C          0.06794       -1.33271       -2.37782
O          0.27007       -1.38138       -3.51708
H          0.57876        1.59922        1.80117
H          0.65740        0.00365        2.57675
H          2.11082        1.06135        2.57453
C          3.69513       -1.55529       -0.59412
O          3.27931       -0.95025       -1.72256
C          3.71213       -1.41130       -2.96810
H          3.12925       -0.86377       -3.71891
H          4.78776       -1.21719       -3.12768
H          3.51689       -2.49033       -3.09168
C          3.37027       -1.81548        1.77509
O          2.66323       -1.47881        2.87909
C          2.93317       -2.11558        4.09064
H          2.24032       -1.68975        4.82856
H          3.96850       -1.93647        4.43292
H          2.76580       -3.20597        4.03241
C          4.37754       -2.79038        1.80384
H          4.64244       -3.28965        2.73503
C          4.70120       -2.52778       -0.57818
H          5.21291       -2.81477       -1.49623
C          5.03871       -3.13015        0.62851
H          5.82397       -3.88937        0.65275
C          3.68836        1.98109        0.30964
O          4.02548        1.39076        1.47385
C          5.23186        1.71070        2.10007
H          5.32868        1.02336        2.95066
H          6.09293        1.56627        1.42484
H          5.24374        2.74867        2.47790
C          2.26892        1.99285       -1.63662
O          1.26440        1.43473       -2.33191
C          1.08862        1.77657       -3.67660
H          0.33577        1.08750       -4.07588
H          2.02306        1.65405       -4.25194
H          0.73080        2.81486       -3.79977
C          3.00153        3.07285       -2.15563
H          2.74774        3.49836       -3.12527
C          4.42312        3.05859       -0.20403
H          5.27037        3.46846        0.34424
C          4.06241        3.59846       -1.43111
H          4.62771        4.44090       -1.83741
H         -2.49976        0.41607       -2.97805
H         -3.02228        1.90932       -2.11758
H         -1.27795        1.62187       -2.45476
C         -4.84243        0.45317       -0.20366
O         -4.52644        1.76249       -0.12992
C         -5.38692        2.65799        0.51067
H         -4.83879        3.60538        0.59697
H         -6.31281        2.83069       -0.06627
H         -5.65450        2.30927        1.52300
C         -4.11812       -1.77980       -0.74239
O         -3.12855       -2.58329       -1.16444
C         -3.37189       -3.93538       -1.40858
H         -2.41809       -4.36023       -1.74775
H         -4.13119       -4.08308       -2.19714
H         -3.69696       -4.46973       -0.49771
C         -5.42196       -2.25190       -0.52584
H         -5.66237       -3.30407       -0.67259
C         -6.14453       -0.00990        0.02353
H         -6.94257        0.68044        0.29542
C         -6.41510       -1.36412       -0.13121
H         -7.42943       -1.73365        0.03884
C         -2.36444        0.94873        2.01755
O         -2.80119       -0.32539        2.08392
C         -3.20218       -0.86913        3.30462
H         -3.51355       -1.90055        3.09536
H         -2.37779       -0.88403        4.03956
H         -4.05714       -0.32026        3.73766
C         -1.43792        2.68266        0.63240
O         -0.99148        3.05627       -0.58457
C         -0.24066        4.22832       -0.71467
H          0.08044        4.27830       -1.76264
H          0.65902        4.20838       -0.07616
H         -0.83493        5.13009       -0.48224
C         -1.33671        3.52065        1.75259
H         -0.91520        4.52053        1.65948
C         -2.26934        1.77608        3.14222
H         -2.57390        1.41890        4.12527
C         -1.76195        3.06220        2.99391
H         -1.68026        3.71472        3.86629
