78
Cat181.ts34.5.log	Energy: -1347528.6983381
C         -1.11057       -1.46815       -2.82495
H         -0.87492       -2.52510       -2.97210
H         -2.17805       -1.23439       -2.80423
C         -0.18433       -0.50182       -3.30090
H          0.75906       -0.82952       -3.74663
H         -0.57571        0.42238       -3.73997
H          0.07914        0.52195       -2.03433
Rh        -0.05691       -0.78208       -1.07188
O         -2.48378        1.62004       -0.46855
O         -3.31403       -0.69499       -0.53075
O         -2.07333        0.22059        1.51971
O          2.15484       -0.53528        1.49049
O          3.16079        0.16447       -0.63887
O          1.43649        1.62210        0.54240
P          1.66829        0.08831        0.05767
P         -1.95719        0.10454       -0.12230
C          0.16554       -2.56481       -0.47334
O          0.23870       -3.65487       -0.10766
C         -1.60794        2.72568       -0.21725
H         -0.60564        2.33635        0.02893
C         -2.13823        3.50632        0.96847
H         -2.20323        2.84995        1.84735
H         -3.14356        3.90179        0.75404
H         -1.47531        4.35313        1.20541
C         -1.51088        3.54006       -1.48969
H         -1.10265        2.92527       -2.30548
H         -2.50447        3.90434       -1.79455
H         -0.84968        4.40832       -1.34645
C         -4.62008       -0.29475       -0.08454
H         -4.49898        0.40409        0.76010
C         -5.33533       -1.54108        0.39226
H         -4.78491       -2.01271        1.21810
H         -5.41796       -2.27102       -0.42771
H         -6.34893       -1.29512        0.74323
C         -5.33306        0.40691       -1.22263
H         -4.76347        1.29334       -1.53140
H         -5.43252       -0.27010       -2.08552
H         -6.34085        0.72296       -0.91229
C         -1.31482       -0.63009        2.37973
H         -0.34411       -0.83099        1.89450
C         -2.03866       -1.94558        2.59062
H         -2.17483       -2.47421        1.63566
H         -3.03010       -1.77303        3.03814
H         -1.46435       -2.60002        3.26385
C         -1.07066        0.13540        3.66132
H         -0.54776        1.07710        3.44502
H         -2.02264        0.37042        4.16240
H         -0.44896       -0.45600        4.34997
C          2.81618       -1.80451        1.56730
H          2.70588       -2.32268        0.59722
C          2.13149       -2.61885        2.64442
H          1.07854       -2.79968        2.38951
H          2.17416       -2.08485        3.60633
H          2.62626       -3.59394        2.76396
C          4.28917       -1.56861        1.83497
H          4.72545       -0.96360        1.02886
H          4.42047       -1.03291        2.78803
H          4.83078       -2.52461        1.89658
C          3.33419        0.20803       -2.05761
H          2.40881        0.60313       -2.51355
C          3.57149       -1.19654       -2.57355
H          2.70122       -1.82805       -2.33851
H          4.46408       -1.63312       -2.09917
H          3.72248       -1.19453       -3.66384
C          4.47625        1.16032       -2.34265
H          4.25593        2.16195       -1.94588
H          5.40369        0.80027       -1.87132
H          4.64838        1.24531       -3.42598
C          2.43394        2.38808        1.23541
H          3.39752        1.85866        1.15266
C          2.03941        2.49880        2.69330
H          1.96616        1.49783        3.13863
H          1.06354        3.00011        2.78861
H          2.78552        3.08262        3.25342
C          2.53609        3.72662        0.53470
H          2.81023        3.58981       -0.52129
H          1.57067        4.25493        0.57317
H          3.29750        4.35979        1.01416
