88
Cat100.ts34.5.log	Energy: -1446696.5732547
C         -0.54513       -2.60595       -2.30647
H         -0.55564       -3.64711       -1.97162
H         -1.41871       -2.31915       -2.90179
C          0.71847       -2.01960       -2.63726
H          1.63973       -2.58041       -2.45075
H          0.78117       -1.39928       -3.54030
H          0.61608       -0.58222       -1.95748
Rh        -0.02832       -1.32519       -0.67353
C         -2.17302        1.11630       -2.23827
C         -3.49867       -0.63438       -0.38559
C         -1.85175        1.35793        0.72703
C          1.44922        0.42635        2.16928
C          3.26519       -1.05194        0.45948
C          2.09852        1.37270       -0.50298
P          1.65852       -0.15849        0.40811
P         -1.85314        0.15310       -0.65698
C         -0.41257       -2.64048        0.62539
O         -0.70692       -3.45447        1.38922
H         -2.37673        0.26736       -2.91784
C         -3.39542        2.02519       -2.24641
H         -3.51186        2.48838       -3.24003
H         -4.31876        1.47197       -2.02770
H         -3.30850        2.84031       -1.51197
C         -0.92402        1.81769       -2.76411
H         -0.04288        1.16239       -2.71784
H         -1.07677        2.12007       -3.81244
H         -0.67491        2.72629       -2.19681
C         -3.67309       -1.98037       -0.71827
H         -2.81718       -2.54508       -1.09265
C         -4.59686        0.06450        0.13788
H         -4.48590        1.11120        0.43042
C         -4.90893       -2.60349       -0.55538
H         -5.01722       -3.65796       -0.82446
C         -5.82568       -0.56360        0.30669
H         -6.66575        0.00313        0.71901
C         -6.00691       -1.90956       -0.03938
C         -7.32861       -2.58705        0.17453
H         -7.46394       -2.85952        1.23460
H         -8.16722       -1.92950       -0.09982
H         -7.40903       -3.51082       -0.41573
C         -1.52914        2.71219        0.60888
H         -1.34377        3.15080       -0.37106
C         -2.06717        0.84736        2.01973
H         -2.31556       -0.21046        2.14238
C         -1.41380        3.52320        1.74038
H         -1.15484        4.57873        1.61540
C         -1.95810        1.65835        3.13975
H         -2.12830        1.22815        4.13098
C         -1.61870        3.01591        3.02452
C         -1.48388        3.87905        4.24422
H         -2.42366        3.90849        4.81851
H         -0.70577        3.49239        4.92183
H         -1.21747        4.91213        3.98046
H          0.62091        1.15155        2.09393
C          0.97827       -0.72473        3.04672
H          0.82116       -0.36935        4.07758
H          0.03293       -1.14905        2.68716
H          1.72480       -1.53480        3.08211
C          2.67245        1.10937        2.76657
H          3.05789        1.92306        2.13564
H          2.41413        1.54034        3.74766
H          3.48897        0.38871        2.92482
C          3.25534       -2.44954        0.50161
H          2.29429       -2.96900        0.44708
C          4.50286       -0.39402        0.48711
H          4.54120        0.69659        0.43934
C          4.44528       -3.16834        0.59101
H          4.41099       -4.26078        0.63037
C          5.68846       -1.11740        0.56243
H          6.64291       -0.58311        0.57947
C          5.68284       -2.51750        0.61876
C          6.96779       -3.29069        0.67082
H          7.71901       -2.78232        1.29335
H          6.81424       -4.30183        1.07388
H          7.40197       -3.40029       -0.33716
C          1.71489        2.64661       -0.08013
H          1.21310        2.78338        0.87794
C          2.73196        1.25497       -1.75032
H          3.04028        0.26817       -2.10674
C          1.94522        3.76523       -0.88276
H          1.62875        4.75032       -0.52761
C          2.96391        2.37124       -2.54182
H          3.45944        2.24922       -3.50940
C          2.56823        3.65201       -2.12652
C          2.80732        4.84869       -2.99931
H          3.87522        4.95620       -3.24714
H          2.26323        4.75909       -3.95337
H          2.47857        5.77665       -2.51093
