76
Cat15.ts34.5.log	Energy: -1348103.5234863
C         -1.08414       -3.06189       -1.50605
H         -1.32072       -3.93052       -0.88541
H         -1.90234       -2.74262       -2.16044
C          0.25957       -2.90772       -1.96111
H          1.03414       -3.60146       -1.62203
H          0.42540       -2.56086       -2.98723
H          0.60711       -1.32950       -1.65348
Rh        -0.21645       -1.54029       -0.26956
C         -1.65263        0.75564       -2.61832
C         -3.46866       -0.08853       -0.60365
C         -1.46829        1.77043        0.06466
C          1.49510       -0.12369        2.48544
C          3.17810       -1.20531        0.48272
C          1.85927        1.27484       -0.00664
P          1.53450       -0.39834        0.67306
P         -1.66517        0.20175       -0.86543
C         -0.74760       -2.32939        1.35896
O         -1.06588       -2.77200        2.37715
H         -0.64677        1.12281       -2.86870
H         -1.86109       -0.12663       -3.24073
H         -2.39983        1.53233       -2.83944
C         -4.40568        0.93516       -0.80363
H         -4.07379        1.93349       -1.10211
C         -3.90847       -1.34263       -0.18390
H         -3.16317       -2.12447       -0.01410
C         -5.75680        0.68660       -0.59383
H         -6.48802        1.48511       -0.74336
C         -5.26793       -1.60910        0.03255
C         -5.70652       -2.97298        0.48116
H         -5.16045       -3.28789        1.38399
H         -6.78206       -2.99945        0.70578
H         -5.50572       -3.72891       -0.29516
C         -6.18421       -0.57721       -0.18074
H         -7.24930       -0.76095       -0.01333
C         -1.19981        3.00713       -0.52273
H         -1.10759        3.10313       -1.60575
C         -1.55951        1.68581        1.46175
H         -1.76174        0.71055        1.91743
C         -1.03053        4.13522        0.28219
H         -0.81078        5.10000       -0.18162
C         -1.39617        2.80432        2.27749
C         -1.48757        2.69402        3.77220
H         -1.74234        1.67184        4.08524
H         -0.53280        2.96624        4.25102
H         -2.25496        3.37230        4.17733
C         -1.12887        4.03833        1.66460
H         -0.99156        4.92930        2.28407
H          1.38809       -1.10624        2.96508
H          2.41567        0.35432        2.84958
H          0.61959        0.48943        2.74206
C          3.23007       -2.60146        0.46336
H          2.29346       -3.16525        0.50944
C          4.36679       -0.47110        0.40218
H          4.32770        0.62204        0.40954
C          4.46197       -3.24754        0.37774
H          4.50418       -4.33962        0.36905
C          5.60797       -1.10646        0.30097
C          6.87577       -0.31063        0.18126
H          7.65712       -0.69465        0.85480
H          7.27869       -0.36081       -0.84377
H          6.70924        0.74922        0.41988
C          5.63804       -2.50716        0.29444
H          6.59972       -3.02303        0.21873
C          2.03784        2.40783        0.78843
H          1.97781        2.34297        1.87549
C          1.92277        1.40667       -1.40011
H          1.76870        0.51848       -2.02057
C          2.28189        3.64480        0.19039
H          2.41200        4.53018        0.81730
C          2.16560        2.63608       -2.01243
C          2.19558        2.76230       -3.50821
H          1.28543        3.26177       -3.88057
H          3.05340        3.36362       -3.84572
H          2.25649        1.77829       -3.99392
C          2.34882        3.75908       -1.19284
H          2.53767        4.73477       -1.64970
