92
Cat107.ts34.5.log	Energy: -1635443.1430108
C          0.18779        2.02994       -2.78636
H          0.12005        3.08461       -2.50712
H          1.09046        1.76774       -3.34764
C         -1.02431        1.33106       -3.05236
H         -1.97979        1.83528       -2.88564
H         -1.04759        0.61584       -3.88249
H         -0.87482       -0.05691       -2.20756
Rh        -0.20921        0.83490       -1.03475
C          1.76839       -1.69266       -2.56106
O          3.23508        0.05369       -1.31821
O          1.79870       -1.54122        0.15787
C         -1.15576       -1.21902        1.76890
O         -2.67440        0.87457        1.19659
O         -2.75828       -1.10650       -0.51462
P         -1.68601       -0.16479        0.34226
P          1.66646       -0.49640       -1.15025
C          0.02679        2.29453        0.16275
O          0.17959        3.15965        0.90436
H          1.52471       -1.03893       -3.42080
C          3.13240       -2.32658       -2.79119
H          3.08813       -3.00590       -3.65748
H          3.90446       -1.57049       -2.97971
H          3.45029       -2.91777       -1.91992
C          0.66182       -2.73108       -2.42364
H         -0.31160       -2.26432       -2.21181
H          0.56590       -3.31528       -3.35169
H          0.88614       -3.43155       -1.60439
C          3.83854        1.12429       -0.70932
C          3.23259        2.37664       -0.65508
H          2.25532        2.50814       -1.11578
C          5.12854        0.91329       -0.19254
C          5.81478       -0.40650       -0.35871
H          5.23406       -1.22662        0.08607
H          5.94086       -0.65022       -1.42550
H          6.80733       -0.39172        0.11111
C          3.87188        3.42971       -0.00457
H          3.38028        4.40340        0.05313
C          5.74706        1.98911        0.45027
H          6.74659        1.84031        0.86811
C          5.12710        3.23344        0.56442
H          5.63463        4.05159        1.08029
C          2.83182       -1.80889        1.00766
C          3.46749       -3.04969        0.90527
H          3.13388       -3.74170        0.13021
C          3.19014       -0.89507        2.01290
C          2.48320        0.41365        2.19814
H          3.18652        1.25791        2.13765
H          1.70732        0.57432        1.43971
H          2.00102        0.45416        3.18810
C          4.49460       -3.38962        1.77875
H          4.98706       -4.36047        1.68850
C          4.23798       -1.25813        2.86863
H          4.54044       -0.55070        3.64582
C          4.89132       -2.48170        2.76018
H          5.70420       -2.73030        3.44599
H         -0.16825       -0.77447        1.98295
C         -2.00543       -1.15188        3.03220
H         -1.49603       -1.70955        3.83441
H         -2.15550       -0.11920        3.37177
H         -2.99291       -1.61067        2.88144
C         -0.92444       -2.65385        1.30534
H         -0.34020       -2.69492        0.37725
H         -0.35217       -3.19781        2.07203
H         -1.87905       -3.18068        1.15839
C         -3.23326        2.00473        0.65912
C         -3.79575        2.00491       -0.61698
H         -3.78559        1.08743       -1.20734
C         -3.24872        3.14912        1.46988
C         -2.65221        3.10881        2.84269
H         -3.14273        2.34611        3.46755
H         -1.58281        2.85181        2.80080
H         -2.75161        4.08164        3.34261
C         -4.37001        3.17241       -1.11545
H         -4.81087        3.17299       -2.11507
C         -3.83416        4.30393        0.94376
H         -3.85147        5.20782        1.55866
C         -4.38546        4.32669       -0.33651
H         -4.83329        5.24550       -0.72134
C         -3.83145       -1.84477       -0.08623
C         -4.74866       -1.36727        0.85029
H         -4.60177       -0.38433        1.29527
C         -4.00576       -3.09530       -0.70450
C         -3.02528       -3.56842       -1.73170
H         -2.90279       -2.82502       -2.53413
H         -2.02763       -3.71639       -1.29005
H         -3.34897       -4.51830       -2.17795
C         -5.84064       -2.15593        1.20877
H         -6.55365       -1.77974        1.94599
C         -5.11226       -3.85965       -0.32711
H         -5.25836       -4.83578       -0.79781
C         -6.02378       -3.40605        0.62515
H         -6.87925       -4.02575        0.90236
