84
Cat157.ts34.5.log	Energy: -2645042.5419613
C          0.43370       -3.67752       -1.06346
H          0.11762       -4.04412       -2.04346
H          1.50345       -3.77927       -0.85613
C         -0.48780       -3.76115        0.01638
H         -1.50457       -4.12406       -0.15864
H         -0.10139       -4.01739        1.00890
H         -0.48945       -2.26114        0.70491
Rh        -0.34165       -1.68502       -0.80516
O          1.44175        0.22894        1.29588
C          3.00232       -1.72220        0.24945
C          2.33195        0.62509       -1.23975
O         -1.72287        1.23226       -1.06919
C         -3.70273       -0.61150       -0.56814
C         -2.00504        0.30441        1.51187
P         -1.94467       -0.19134       -0.24765
P          1.58638       -0.62954       -0.12344
C         -0.55858       -1.41866       -2.66813
O         -0.65492       -1.21939       -3.79759
C          2.45909        1.08035        1.79806
H          2.46341        0.95292        2.89378
H          3.45184        0.75495        1.43887
C          2.23000        2.53722        1.43700
H          2.03476        2.61044        0.35644
H          1.31964        2.90133        1.94204
C          3.41244        3.42734        1.78923
H          4.32293        3.01235        1.32155
H          3.59265        3.39878        2.87864
C          3.22417        4.86473        1.33142
H          3.10222        4.91582        0.23717
H          2.32767        5.31580        1.78619
H          4.08609        5.49357        1.60045
C          3.23627       -2.14337        1.56425
H          2.64298       -1.71827        2.37752
C          3.74636       -2.30494       -0.78638
H          3.56013       -2.01111       -1.82335
C          4.20910       -3.09811        1.84714
H          4.39649       -3.42065        2.87271
C          4.72128       -3.25992       -0.51677
H          5.30445       -3.70862       -1.32259
C          4.95090       -3.64914        0.80337
Cl         6.16387       -4.83595        1.14664
C          3.69601        0.94388       -1.26093
H          4.41227        0.33173       -0.70781
C          1.44163        1.41405       -1.98000
H          0.37427        1.17577       -1.96392
C          4.15928        2.05110       -1.96567
H          5.21923        2.31043       -1.97157
C          1.89089        2.52671       -2.68413
H          1.19513        3.15450       -3.24300
C          3.24739        2.84822       -2.65742
Cl         3.80833        4.26038       -3.48662
C         -2.66880        2.25222       -1.35654
H         -2.51237        2.51417       -2.41651
H         -3.69654        1.86577       -1.26959
C         -2.47678        3.47695       -0.48433
H         -3.23478        4.22373       -0.77968
H         -2.69962        3.21691        0.56437
C         -1.08301        4.08258       -0.58690
H         -0.92196        4.44399       -1.61806
H         -0.33244        3.28875       -0.43824
C         -0.83936        5.20960        0.40182
H         -1.55677        6.03406        0.26180
H         -0.94768        4.85566        1.44040
H          0.17382        5.62547        0.29691
C         -3.98522       -1.60893       -1.50740
H         -3.14975       -2.13054       -1.98427
C         -4.77075        0.03496        0.07220
H         -4.57462        0.80206        0.82587
C         -5.29814       -1.94878       -1.81973
H         -5.51821       -2.72699       -2.55215
C         -6.08807       -0.29787       -0.22522
H         -6.92038        0.20144        0.27337
C         -6.34303       -1.28861       -1.17474
Cl        -7.97877       -1.70917       -1.54587
C         -1.28223        1.41258        1.95735
H         -0.74546        2.02782        1.23636
C         -2.64101       -0.51196        2.45526
H         -3.19511       -1.39669        2.12997
C         -1.21636        1.72648        3.31106
H         -0.65408        2.59510        3.65853
C         -2.57948       -0.21430        3.81265
H         -3.07898       -0.84596        4.54887
C         -1.86821        0.91012        4.23285
Cl        -1.78868        1.29042        5.92024
