108
Cat103.ts34.5.log	Energy: -1922606.0398799
C         -0.40408       -0.67429       -2.94764
H          0.09284       -1.51452       -3.43650
H         -1.47254       -0.57855       -3.15110
C          0.34568        0.47687       -2.62382
H          1.41799        0.51028       -2.84302
H         -0.15927        1.44902       -2.67980
H          0.33337        0.76581       -1.02297
Rh         0.04980       -0.81887       -0.82092
C         -1.46347        0.90705        1.97301
C         -2.39119        1.39214       -0.84764
C         -3.38033       -0.82187        0.77290
C          2.68178       -2.30891        1.08674
C          3.57477       -0.53341       -0.88183
C          2.21338        0.76541        1.36158
P          2.11578       -0.72482        0.26104
P         -1.81440        0.08428        0.32613
C         -0.11300       -2.67523       -0.86792
O         -0.18560       -3.82647       -0.96363
H         -0.56998        1.51054        1.75913
C         -2.56355        1.79256        2.53637
H         -3.43722        1.19311        2.83525
H         -2.19533        2.31512        3.43598
H         -2.90911        2.54414        1.81586
C         -1.07780       -0.17740        2.97056
H         -0.27759       -0.81951        2.58006
H         -0.72337        0.29523        3.90104
H         -1.93792       -0.81615        3.22530
C         -3.17944        1.00262       -1.95405
O         -3.57227       -0.28628       -1.95972
C         -4.38943       -0.77187       -2.98150
H         -4.58268       -1.82606       -2.74622
H         -5.35221       -0.23249       -3.02904
H         -3.89549       -0.70801       -3.96763
C         -1.93261        2.71950       -0.83654
O         -1.09407        3.08024        0.16744
C         -1.04581        4.41990        0.56605
H         -0.52036        4.43940        1.52945
H         -2.05878        4.83968        0.69158
H         -0.48760        5.05279       -0.14787
C         -2.29596        3.63424       -1.83569
H         -1.93521        4.66201       -1.79533
C         -3.54002        1.90199       -2.96077
H         -4.15811        1.57858       -3.79755
C         -3.10100        3.22095       -2.88826
H         -3.38033        3.92996       -3.67089
C         -4.66051       -0.22774        0.72689
O         -4.70719        1.09178        0.46370
C         -5.92237        1.71812        0.18729
H         -5.67714        2.74490       -0.11474
H         -6.46052        1.22338       -0.64040
H         -6.58413        1.75157        1.07132
C         -3.32059       -2.18236        1.14065
O         -2.09829       -2.72577        1.28370
C         -1.98222       -4.07988        1.62078
H         -0.90969       -4.29853        1.66158
H         -2.44149       -4.73087        0.85808
H         -2.43552       -4.29386        2.60463
C         -4.48685       -2.93114        1.36594
H         -4.42583       -3.98476        1.63215
C         -5.82777       -0.96895        0.94749
H         -6.80625       -0.49306        0.89532
C         -5.72703       -2.31943        1.25600
H         -6.63392       -2.90320        1.43187
H          2.73679       -2.89572        0.15161
C          4.07144       -2.28309        1.70602
H          4.37636       -3.30625        1.98348
H          4.82106       -1.88788        1.00617
H          4.08717       -1.66370        2.61262
C          1.64066       -2.98868        1.96532
H          1.70425       -2.64940        3.00514
H          0.62430       -2.77532        1.60676
H          1.79343       -4.08005        1.95049
C          4.65411        0.35120       -0.68226
O          4.75847        0.91112        0.53687
C          5.61906        1.98949        0.74774
H          5.40913        2.35798        1.76049
H          6.68109        1.69176        0.68578
H          5.43617        2.80576        0.02684
C          3.58272       -1.28753       -2.07554
O          2.66206       -2.26296       -2.16449
C          2.50337       -2.98589       -3.35019
H          1.65170       -3.65798       -3.18548
H          3.39865       -3.58811       -3.58563
H          2.28195       -2.32458       -4.20567
C          4.51619       -1.04623       -3.09275
H          4.48840       -1.61813       -4.01931
C          5.58983        0.60533       -1.69375
H          6.40190        1.31356       -1.53226
C          5.49882       -0.08392       -2.89702
H          6.22928        0.10939       -3.68636
C          2.17826        2.03436        0.74246
O          2.27650        2.03157       -0.60038
C          2.13358        3.21927       -1.32238
H          2.23395        2.95056       -2.38124
H          1.14176        3.67103       -1.15823
H          2.91831        3.95344       -1.06777
C          2.16132        0.74565        2.76510
O          2.21127       -0.46471        3.36047
C          2.16993       -0.55746        4.75378
H          2.22982       -1.62683        4.99613
H          1.22892       -0.15409        5.16569
H          3.02192       -0.03728        5.22555
C          2.05511        1.92656        3.51486
H          2.00399        1.88842        4.60172
C          2.08424        3.21777        1.47873
H          2.06538        4.18253        0.97409
C          2.01615        3.15288        2.86590
H          1.93652        4.07246        3.45068
