50
Cat175.ts34.5.log	Energy: -961564.0607258
C         -3.08739        0.17559       -1.17756
H         -3.90215       -0.51543       -0.94624
H         -3.32096        1.22487       -0.97014
C         -2.24140       -0.13052       -2.28907
H         -2.37043       -1.07835       -2.81892
H         -1.93833        0.68625       -2.95423
H         -0.73333        0.13909       -1.70645
Rh        -1.26325       -0.55943       -0.33634
O          0.23744        2.46202        0.68517
C         -2.22915        2.21191        1.67324
C         -0.03097        0.74895        2.66497
O          1.95839       -0.49288        0.07755
C          1.02565       -2.93856        0.86179
C          1.34406       -2.29686       -1.88884
P          0.75186       -1.56492       -0.31739
P         -0.80732        1.22337        1.08055
C         -2.11361       -1.89170        0.70291
O         -2.59425       -2.69802        1.37350
C          0.73381        2.61469       -0.63586
H          0.94929        1.61211       -1.04685
C          2.02713        3.39536       -0.52677
H          2.72593        2.87091        0.14072
H          1.84162        4.39658       -0.10788
H          2.50012        3.51135       -1.51367
C         -0.30051        3.29882       -1.51145
H         -1.21741        2.69199       -1.56498
H         -0.56141        4.28601       -1.09863
H          0.07565        3.43629       -2.53703
H         -2.94742        1.54523        2.17336
H         -1.89766        2.99975        2.36636
H         -2.73353        2.67778        0.81466
H         -0.69081        0.04925        3.19884
H          0.91669        0.24380        2.43280
H          0.16862        1.63295        3.28949
C          3.34621       -0.80814        0.12722
H          3.48869       -1.89564       -0.01805
C          3.86124       -0.43294        1.50307
H          3.33555       -1.00250        2.28341
H          3.68985        0.63849        1.68839
H          4.93912       -0.63585        1.59128
C          4.05720       -0.07153       -0.99238
H          3.65724       -0.36869       -1.97245
H          3.91416        1.01354       -0.88083
H          5.13676       -0.28471       -0.98018
H          2.05385       -3.33002        0.83921
H          0.78920       -2.58097        1.87398
H          0.32726       -3.75189        0.61657
H          1.32092       -1.52096       -2.66685
H          2.35657       -2.72378       -1.81876
H          0.63796       -3.08930       -2.17648
