88
Cat116.ts34.5.log	Energy: -1695665.1255460
C          0.55575       -0.86301        3.47661
H          0.42036       -1.88040        3.85379
H          1.49437       -0.39815        3.79895
C         -0.60424       -0.04358        3.33083
H         -1.59239       -0.46940        3.52644
H         -0.53486        1.01469        3.60921
H         -0.46392        0.61460        1.80865
Rh         0.12600       -0.82656        1.37993
C          2.24121        1.93305        1.99899
C          3.70059       -0.45738        1.23813
C          2.33945        1.04723       -0.85461
C         -0.21649       -1.17103       -2.12225
C         -2.57255       -1.99042       -0.57794
C         -1.86125        0.88989       -1.07469
P         -1.15499       -0.75171       -0.54892
P          2.09010        0.42377        0.89521
C          0.12892       -2.70560        1.30874
O          0.03807       -3.85759        1.30431
H          1.95597        1.50104        2.97566
C          3.61801        2.56893        2.16246
H          3.56672        3.36334        2.92514
H          4.37790        1.84903        2.49789
H          3.97400        3.03063        1.23114
C          1.18641        2.97497        1.63812
H          0.20038        2.51888        1.46027
H          1.07797        3.70694        2.45403
H          1.47378        3.53498        0.73724
H          4.55062        0.18775        0.97349
H          3.71914       -0.58695        2.33179
C          3.78685       -1.79110        0.56000
C          3.25328       -2.93081        1.17589
H          2.81373       -2.84004        2.17082
C          4.34789       -1.93848       -0.71489
H          4.78689       -1.07776       -1.22315
C          3.26123       -4.17015        0.54446
H          2.82958       -5.05295        1.01808
C          4.36860       -3.17156       -1.36319
H          4.80755       -3.28927       -2.35541
C          3.81482       -4.27331       -0.72522
F          3.82278       -5.45511       -1.34159
H          2.54420        0.12850       -1.42868
H          1.34245        1.38749       -1.16986
C          3.34541        2.11827       -1.15738
C          2.91574        3.42362       -1.43573
H          1.84460        3.63891       -1.46564
C          4.72611        1.87530       -1.18151
H          5.10592        0.86907       -1.00412
C          3.81546        4.45692       -1.68088
H          3.47659        5.47237       -1.89368
C          5.64334        2.89374       -1.42453
H          6.71778        2.70249       -1.43792
C          5.17633        4.18041       -1.66085
F          6.04733        5.16099       -1.88984
H          0.41306       -0.27577       -2.26091
C          0.70259       -2.36776       -1.91145
H          1.30865       -2.54675       -2.81357
H          1.38221       -2.21605       -1.06226
H          0.12934       -3.28839       -1.71497
C         -1.06231       -1.35194       -3.37691
H         -1.74871       -0.51439       -3.56821
H         -0.40575       -1.44184       -4.25683
H         -1.65791       -2.27697       -3.33170
H         -2.30027       -2.75482       -1.32171
H         -2.53324       -2.48092        0.40256
C         -3.95396       -1.46918       -0.83182
C         -4.77894       -1.12263        0.24729
H         -4.40661       -1.25092        1.26644
C         -4.45920       -1.30340       -2.12611
H         -3.84889       -1.58553       -2.98606
C         -6.05316       -0.60442        0.04954
H         -6.69164       -0.31720        0.88647
C         -5.73440       -0.78583       -2.34439
H         -6.13383       -0.65223       -3.35141
C         -6.51111       -0.43125       -1.25047
F         -7.72074        0.09307       -1.45098
H         -0.98571        1.56053       -1.01380
H         -2.12892        0.82177       -2.13853
C         -3.02221        1.49818       -0.33340
C         -4.09925        2.01611       -1.06243
H         -4.09816        1.93436       -2.15205
C         -3.06228        1.61011        1.06174
H         -2.24289        1.20236        1.65268
C         -5.18715        2.61390       -0.43263
H         -6.03683        2.99714       -1.00023
C         -4.14127        2.20394        1.70972
H         -4.17737        2.28566        2.79766
C         -5.19580        2.69744        0.95265
F         -6.23841        3.25594        1.56852
