78
Cat185.ts34.5.log	Energy: -1691443.1182757
C          1.04039       -3.43972        0.59268
H          1.01801       -4.16130       -0.22824
H          2.03498       -3.28384        1.02254
C         -0.10858       -3.33729        1.42806
H         -1.00402       -3.92128        1.19749
H          0.03795       -3.19001        2.50342
H         -0.43120       -1.69878        1.53861
Rh         0.02993       -1.64541       -0.01881
O          2.02214        0.62787        1.79551
C          3.47346       -0.79420        0.04108
C          1.79403        1.33207       -0.71618
O         -1.75030        0.42007       -1.80026
C         -3.36519       -0.84450        0.04993
C         -1.64713        1.30193        0.78192
P         -1.68110       -0.19137       -0.27086
P          1.77712       -0.16018        0.34883
C         -0.05161       -2.20221       -1.82652
O         -0.11433       -2.52417       -2.93060
C          1.47222        0.13557        3.01195
H          0.42394       -0.15891        2.81797
C          1.49666        1.28598        3.99499
H          0.93999        2.14392        3.59384
H          2.53263        1.60271        4.19193
H          1.03806        0.98868        4.94984
C          2.23996       -1.07920        3.49876
H          2.21706       -1.88261        2.74767
H          3.29352       -0.82444        3.69112
H          1.80084       -1.46910        4.42960
C          3.67244       -1.78773       -0.92289
H          2.80909       -2.20070       -1.45112
C          4.57729       -0.28590        0.73556
H          4.42210        0.48688        1.49134
C          4.95137       -2.26070       -1.20457
H          5.12537       -3.03457       -1.95436
C          5.85937       -0.75888        0.47329
H          6.73283       -0.37870        1.00654
C          6.02862       -1.73938       -0.49832
F          7.25396       -2.19452       -0.75304
C          2.15145        2.58962       -0.21752
H          2.43131        2.68586        0.83254
C          1.41095        1.21118       -2.05601
H          1.09716        0.23989       -2.44410
C          2.11902        3.71306       -1.03944
H          2.38458        4.70441       -0.66686
C          1.38778        2.32414       -2.89107
H          1.08717        2.24841       -3.93731
C          1.73531        3.56390       -2.36732
F          1.69020        4.63737       -3.15606
C         -2.84569        1.15639       -2.35604
H         -3.39556        1.65901       -1.53876
C         -3.77559        0.21076       -3.09353
H         -4.20669       -0.54031       -2.41873
H         -3.21983       -0.31436       -3.88515
H         -4.60167        0.76964       -3.55834
C         -2.26023        2.20814       -3.27663
H         -1.58957        2.89052       -2.73715
H         -1.68008        1.72480       -4.07703
H         -3.06246        2.80205       -3.73872
C         -4.45237       -0.04028        0.41962
H         -4.30833        1.02734        0.60135
C         -3.57436       -2.21410       -0.15400
H         -2.71611       -2.83579       -0.42736
C         -5.72347       -0.58644        0.56756
H         -6.58118        0.02385        0.85608
C         -4.84030       -2.77390       -0.01531
H         -5.01988       -3.83871       -0.17403
C         -5.89994       -1.94792        0.34281
F         -7.11237       -2.47309        0.48344
C         -1.14963        2.51165        0.28899
H         -0.84411        2.58616       -0.75550
C         -1.99144        1.21006        2.13807
H         -2.36767        0.26632        2.54276
C         -1.01286        3.61846        1.12378
H         -0.61628        4.56480        0.75243
C         -1.86236        2.30737        2.98129
H         -2.12667        2.25381        4.03885
C         -1.37097        3.50057        2.45921
F         -1.22892        4.54799        3.26801
