82
Cat191.ts34.5.log	Energy: -1631218.4674761
C         -1.29456       -3.58967       -1.52946
H         -1.37601       -4.51870       -0.95986
H         -2.23450       -3.24255       -1.96715
C         -0.06456       -3.30961       -2.18899
H          0.79643       -3.96593       -2.03708
H         -0.09660       -2.85857       -3.18715
H          0.23271       -1.75375       -1.80238
Rh        -0.31261       -2.11074       -0.31740
O         -2.11453        0.63431       -1.42834
O         -3.49138       -1.21509       -0.42879
O         -2.19849        0.33476        1.06545
O          1.85233       -0.51217        1.82032
O          2.90930       -1.64768       -0.22514
O          1.56663        0.54010       -0.40266
P          1.49950       -0.95082        0.28486
P         -1.97552       -0.56089       -0.32706
C         -0.61557       -3.18155        1.22962
O         -0.86332       -3.84347        2.13489
C         -1.07829        0.98804       -2.35342
H         -0.16964        0.42499       -2.08196
C         -0.80188        2.46860       -2.20833
H         -0.48600        2.70320       -1.18235
H         -1.70431        3.05660       -2.43460
H          0.00131        2.77554       -2.89500
C         -1.52575        0.57844       -3.74105
H         -1.70871       -0.50619       -3.78256
H         -2.45764        1.09654       -4.01626
H         -0.75703        0.82906       -4.48757
C         -4.63510       -0.46853       -0.28935
C         -5.17706        0.19175       -1.39174
H         -4.67051        0.11769       -2.35431
C         -5.24760       -0.38855        0.96086
H         -4.79077       -0.90660        1.80514
C         -6.33997        0.94298       -1.23432
H         -6.76528        1.46356       -2.09578
C         -6.41043        0.36421        1.10679
H         -6.88888        0.43170        2.08670
C         -6.95848        1.03428        0.01276
H         -7.86866        1.62626        0.13165
C         -2.02058        1.69175        1.14495
C         -3.05359        2.56320        0.79905
H         -4.00288        2.15585        0.44850
C         -0.79352        2.18524        1.58521
H         -0.00544        1.47664        1.83964
C         -2.84581        3.93694        0.89518
H         -3.65320        4.62060        0.62164
C         -0.59374        3.56160        1.67134
H          0.37529        3.94546        1.99853
C         -1.61841        4.44183        1.32631
H         -1.46021        5.52069        1.39031
C          1.57120       -1.37883        2.93414
H          1.41415       -2.40045        2.54900
C          0.30942       -0.90034        3.62033
H         -0.52612       -0.84779        2.90738
H          0.46070        0.10292        4.04793
H          0.03013       -1.58693        4.43308
C          2.79113       -1.38007        3.82990
H          3.67099       -1.76297        3.29315
H          3.01064       -0.36039        4.18227
H          2.61857       -2.01924        4.70825
C          4.10037       -1.02228       -0.50084
C          4.82110       -0.34697        0.48405
H          4.42694       -0.29838        1.49885
C          4.58083       -1.09739       -1.80742
H          3.99654       -1.64358       -2.55031
C          6.01082        0.28960        0.14049
H          6.56383        0.83875        0.90582
C          5.77842       -0.46761       -2.13645
H          6.15298       -0.52251       -3.16148
C          6.49240        0.23560       -1.16696
H          7.42548        0.73890       -1.42900
C          2.45653        1.58110       -0.27637
C          3.06830        2.03923       -1.44229
H          2.85807        1.52699       -2.38226
C          2.70185        2.20713        0.94571
H          2.22536        1.82899        1.84777
C          3.95008        3.11358       -1.38152
H          4.43809        3.46010       -2.29537
C          3.58589        3.28307        0.99276
H          3.78448        3.76838        1.95162
C          4.21544        3.73938       -0.16377
H          4.90989        4.58091       -0.11739
