80
Cat104.ts34.5.log	Energy: -1536840.8719719
C          0.82342        0.37003        3.52801
H          0.69532       -0.47432        4.20951
H          1.84174        0.76636        3.48470
C         -0.28094        1.24642        3.32783
H         -1.24591        1.01782        3.78797
H         -0.08863        2.32302        3.24724
H         -0.39656        1.40617        1.72514
Rh        -0.02138       -0.16988        1.62095
C          2.22546        2.04060       -0.17425
O          3.18513       -0.34676        0.90440
O          1.75986       -0.29026       -1.28532
C         -2.32522       -1.94800       -0.43755
O         -3.16602        0.32734        0.96587
O         -1.74064        0.51907       -1.18899
P         -1.79891       -0.32554        0.26023
P          1.77512        0.31149        0.28525
C          0.07759       -2.01675        2.04232
O          0.19804       -3.13143        2.29971
H          1.23956        2.40636       -0.50756
C          2.60034        2.81433        1.08500
H          2.64097        3.89181        0.86253
H          1.86346        2.66875        1.88902
H          3.58790        2.51315        1.46477
C          3.21597        2.24409       -1.31276
H          2.95107        1.63513       -2.18714
H          3.20177        3.30356       -1.61637
H          4.24439        1.99340       -1.01650
C          4.45162       -0.26640        0.39399
C          4.78560       -0.83893       -0.83582
H          4.01952       -1.34123       -1.42574
C          5.43248        0.35634        1.16850
H          5.15108        0.76861        2.13939
C          6.09677       -0.74942       -1.29787
H          6.35318       -1.19186       -2.26351
C          6.74058        0.43609        0.69781
H          7.50327        0.92743        1.30685
C          7.07716       -0.10852       -0.54127
H          8.10254       -0.04259       -0.91130
C          1.27369       -1.52070       -1.60639
C          0.54723       -1.64431       -2.79298
H          0.39204       -0.75704       -3.40707
C          1.50265       -2.64286       -0.80471
H          2.09165       -2.54645        0.10816
C          0.03370       -2.88288       -3.16570
H         -0.53791       -2.97085       -4.09261
C          0.96959       -3.87518       -1.17958
H          1.13631       -4.74276       -0.53722
C          0.23172       -4.00215       -2.35566
H         -0.18268       -4.97054       -2.64377
H         -1.33955       -2.38717       -0.67395
C         -2.98021       -2.79725        0.64898
H         -3.01962       -3.84671        0.31943
H         -2.42904       -2.76902        1.59932
H         -4.01122       -2.46572        0.83968
C         -3.15348       -1.91272       -1.71551
H         -2.68021       -1.29346       -2.48752
H         -3.24531       -2.93825       -2.10736
H         -4.16777       -1.52833       -1.53543
C         -4.44132        0.39142        0.47104
C         -5.45819       -0.18507        1.23551
H         -5.19154       -0.68287        2.16967
C         -4.74918        1.06324       -0.71464
H         -3.95576        1.52420       -1.30125
C         -6.77907       -0.11178        0.80170
H         -7.56922       -0.56714        1.40357
C         -6.07484        1.12637       -1.13993
H         -6.31079        1.64834       -2.07042
C         -7.09334        0.53851       -0.39142
H         -8.12935        0.59346       -0.73242
C         -1.27503        1.78932       -1.32704
C         -1.51036        2.78444       -0.37193
H         -2.08982        2.55143        0.52234
C         -0.57257        2.09315       -2.49602
H         -0.41150        1.30289       -3.22915
C         -1.00807        4.06815       -0.58251
H         -1.18762        4.83996        0.16971
C         -0.08620        3.38072       -2.69913
H          0.46884        3.60749       -3.61231
C         -0.29168        4.37270       -1.73887
H          0.09821        5.38050       -1.89584
