88
Cat164.ts34.5.log	Energy: -1929489.0063560
C          1.55881        0.54746       -3.74674
H          1.53658        1.57296       -4.12432
H          2.55437        0.10761       -3.64327
C          0.45369       -0.29835       -4.03116
H         -0.42586        0.10535       -4.53927
H          0.64338       -1.35344       -4.25461
H          0.08533       -0.99272       -2.56229
Rh         0.41538        0.45362       -1.92269
O          1.73453       -1.93282        0.07206
O          3.43011       -0.81847       -1.51285
O          2.67231        0.24297        0.68459
O         -1.49514        0.36456        0.84964
O         -2.68175        1.20059       -1.24737
O         -2.14723       -1.31836       -0.84871
P         -1.47476        0.16978       -0.78045
P          2.01939       -0.52055       -0.66133
C          0.39922        2.35961       -1.79160
O          0.39057        3.50499       -1.73094
C          2.37061       -2.45772        1.24258
H          2.54837       -3.52425        1.03285
H          3.34558       -1.97622        1.39917
C          1.48693       -2.28454        2.45734
H          2.04265       -2.66664        3.33216
H          1.34084       -1.20474        2.62932
C          0.14052       -2.98321        2.34758
H          0.30514       -4.06183        2.17754
H         -0.37638       -2.61338        1.44732
C         -0.73191       -2.78600        3.57634
H         -0.23375       -3.15572        4.48715
H         -0.95718       -1.71916        3.73826
H         -1.68934       -3.32081        3.48379
C          4.49346       -1.52024       -1.00914
C          4.58079       -2.89245       -1.24663
H          3.79197       -3.38076       -1.82127
C          5.48701       -0.86590       -0.27893
H          5.40846        0.20902       -0.10806
C          5.65753       -3.61812       -0.74501
H          5.75077       -4.69211       -0.91568
C          6.56512       -1.58849        0.22519
H          7.35607       -1.10297        0.79954
C          6.63525       -2.95664       -0.01086
F          7.66546       -3.64916        0.47379
C          2.97201        1.56920        0.73994
C          3.40922        2.29440       -0.37307
H          3.52126        1.79890       -1.33855
C          2.84646        2.20111        1.97914
H          2.51626        1.61266        2.83690
C          3.69119        3.65299       -0.24724
H          4.01914        4.24202       -1.10527
C          3.14274        3.55396        2.10945
H          3.05357        4.06574        3.06947
C          3.55389        4.26837        0.98949
F          3.82829        5.56691        1.10962
C         -1.00703        1.57884        1.40588
H         -0.06922        1.87067        0.90051
H         -1.74412        2.38349        1.22950
C         -0.76863        1.38530        2.88443
H         -1.66937        0.93652        3.33799
H          0.04216        0.64851        3.01513
C         -0.42046        2.68799        3.59044
H         -1.28510        3.37204        3.53639
H          0.39306        3.19258        3.04211
C         -0.01280        2.48764        5.04057
H         -0.81214        1.99664        5.61838
H          0.88369        1.85100        5.11890
H          0.21437        3.44455        5.53384
C         -4.02453        1.14951       -0.96541
C         -4.51803        1.08655        0.33898
H         -3.82698        1.05359        1.18028
C         -4.90299        1.18465       -2.04793
H         -4.49012        1.24857       -3.05605
C         -5.89086        1.01539        0.55463
H         -6.30143        0.94209        1.56299
C         -6.27689        1.12590       -1.83492
H         -6.98412        1.14764       -2.66591
C         -6.75462        1.03109       -0.53371
F         -8.06871        0.95844       -0.32471
C         -3.28785       -1.77398       -0.22272
C         -4.39357       -2.08341       -1.01265
H         -4.33482       -1.93097       -2.09110
C         -3.32761       -1.96321        1.15694
H         -2.45418       -1.71506        1.75552
C         -5.56079       -2.55174       -0.41909
H         -6.44667       -2.78508       -1.01191
C         -4.49342       -2.43509        1.75418
H         -4.55507       -2.58623        2.83350
C         -5.59832       -2.71678        0.96091
F         -6.71732       -3.15880        1.53378
