90
Cat189.ts34.5.log	Energy: -1541072.4531542
C         -1.55010       -1.38147       -2.95248
H         -1.69535       -2.46371       -3.00424
H         -2.47620       -0.80304       -3.02925
C         -0.33704       -0.84088       -3.46753
H          0.44374       -1.51047       -3.83912
H         -0.37665        0.10976       -4.00997
H          0.24238        0.18725       -2.27711
Rh        -0.33835       -0.92158       -1.23955
O         -1.88198        2.16415       -0.50150
C         -3.61623        0.11704       -0.38399
C         -1.70891        0.62779        1.62395
O          1.56555       -1.34452        1.37950
C          3.13498       -0.89002       -0.83495
C          1.77359        1.23615        0.49295
P          1.52959       -0.49662       -0.03656
P         -1.83367        0.52663       -0.20331
C         -0.46181       -2.67685       -0.54914
O         -0.50887       -3.73815       -0.09946
C         -1.28007        2.72827       -1.65841
H         -0.30992        2.22357       -1.82288
C         -1.03536        4.18966       -1.34915
H         -0.41008        4.28232       -0.45013
H         -1.98882        4.71047       -1.16949
H         -0.52285        4.68307       -2.18867
C         -2.15731        2.51278       -2.87759
H         -2.32484        1.43952       -3.05141
H         -3.13952        2.99086       -2.74076
H         -1.68538        2.93604       -3.77753
C         -4.59463        1.11692       -0.40236
H         -4.29385        2.16336       -0.32313
C         -3.99654       -1.22189       -0.49179
H         -3.21959       -1.99226       -0.50442
C         -5.93493        0.76365       -0.52746
H         -6.70277        1.54139       -0.55067
C         -5.34193       -1.59121       -0.60140
C         -5.72881       -3.03969       -0.68305
H         -5.03528       -3.60413       -1.32416
H         -5.70266       -3.51068        0.31363
H         -6.74551       -3.16567       -1.08183
C         -6.30549       -0.57740       -0.62364
H         -7.36175       -0.84268       -0.72458
C         -1.84639        1.84059        2.30286
H         -2.04359        2.75223        1.73746
C         -1.43087       -0.53942        2.34154
H         -1.29149       -1.47900        1.80155
C         -1.69657        1.87284        3.68805
H         -1.79536        2.82171        4.22209
C         -1.28443       -0.52046        3.73028
C         -0.97141       -1.77662        4.49049
H         -1.70618       -1.95430        5.29142
H         -0.97059       -2.65335        3.82857
H          0.01952       -1.71605        4.96946
C         -1.41531        0.70649        4.39505
H         -1.29455        0.74522        5.48175
C          2.70112       -1.93432        2.01449
H          3.47819       -2.11773        1.25269
C          2.24266       -3.26698        2.57032
H          1.82400       -3.89147        1.76872
H          1.46116       -3.11674        3.32975
H          3.08366       -3.80255        3.03571
C          3.26341       -1.00968        3.07668
H          3.59681       -0.05645        2.64254
H          2.49921       -0.78948        3.83821
H          4.12430       -1.48053        3.57533
C          3.15143       -1.89758       -1.80245
H          2.20654       -2.37440       -2.08005
C          4.33388       -0.25587       -0.48117
H          4.32273        0.53903        0.26974
C          4.35645       -2.26861       -2.39727
H          4.37101       -3.05805       -3.15267
C          5.54730       -0.61120       -1.07463
C          6.82649        0.07907       -0.69881
H          6.66581        0.81394        0.10218
H          7.58284       -0.64217       -0.35134
H          7.25965        0.61055       -1.56129
C          5.53960       -1.63027       -2.03778
H          6.47950       -1.92299       -2.51495
C          1.45334        1.63870        1.78943
H          1.10415        0.90520        2.51776
C          2.17641        2.19278       -0.44916
H          2.41166        1.87745       -1.47090
C          1.56018        2.98581        2.13695
H          1.29966        3.30066        3.15016
C          2.29579        3.54085       -0.11115
C          2.74692        4.55800       -1.11880
H          2.87023        4.10998       -2.11473
H          2.02113        5.38169       -1.20525
H          3.71137        5.00576       -0.82964
C          1.98091        3.92439        1.20184
H          2.06109        4.97746        1.48675
