102
Cat279.ts34.5.log	Energy: -1920937.3937582
C          1.25093       -3.55829        0.82846
H          1.21164       -4.34914        0.07575
H          2.25869       -3.30997        1.17305
C          0.15196       -3.40126        1.71423
H         -0.74915       -4.00876        1.59302
H          0.35139       -3.12383        2.75494
H         -0.21146       -1.79060        1.66264
Rh         0.12802       -1.86834        0.08156
C          2.07612        0.62188        1.84628
O          3.35943       -0.72148        0.04334
O          1.58060        0.96945       -0.78559
C         -2.19817        0.02400       -1.79743
O         -3.19619       -1.32454        0.21647
O         -1.73135        0.71168        0.77389
P         -1.71879       -0.65968       -0.19956
P          1.76190       -0.29821        0.31493
C          0.10479       -2.56760       -1.69242
O          0.09530       -2.97719       -2.76527
C          3.34782        1.08093        2.22507
H          4.21407        0.82816        1.61180
C          0.97393        0.95414        2.63652
H         -0.02223        0.61650        2.33790
C          3.50405        1.85485        3.36189
H          4.48480        2.22173        3.67023
C          1.11943        1.74138        3.77739
H          0.23766        1.99204        4.36730
C          2.39092        2.19714        4.14539
O          2.63898        2.96021        5.22614
C          1.56896        3.34394        6.04350
H          1.05884        2.47176        6.48909
H          1.99242        3.95666        6.84939
H          0.82509        3.94480        5.49115
C          3.73076       -1.59072       -0.94164
C          4.69086       -2.55432       -0.63082
H          5.09396       -2.58559        0.38337
C          3.19606       -1.53432       -2.22886
H          2.44594       -0.78101       -2.47277
C          5.10555       -3.45662       -1.60378
H          5.85481       -4.21076       -1.34638
C          3.61406       -2.45441       -3.18814
H          3.17073       -2.41295       -4.18657
C          4.57324       -3.42933       -2.89992
C          5.03836       -4.39939       -3.94744
H          5.97870       -4.06194       -4.41519
H          4.29468       -4.51143       -4.74936
H          5.22858       -5.39478       -3.51885
C          2.33661        2.11254       -0.71924
C          3.58118        2.17201       -1.34162
H          3.95757        1.29718       -1.87472
C          1.84797        3.22053       -0.02565
H          0.88197        3.14828        0.47701
C          4.33070        3.34472       -1.26650
H          5.30841        3.38344       -1.75485
C          2.60805        4.38240        0.04011
H          2.22031        5.24222        0.59372
C          3.86315        4.46808       -0.57700
C          4.66718        5.73444       -0.51006
H          5.70583        5.56939       -0.82981
H          4.68734        6.14393        0.51155
H          4.23956        6.51362       -1.16276
C         -1.17843        0.54193       -2.61197
H         -0.13771        0.47530       -2.28219
C         -3.52634        0.13648       -2.21235
H         -4.32212       -0.26244       -1.58133
C         -1.48714        1.16527       -3.80899
H         -0.70840        1.57919       -4.45190
C         -3.84447        0.75675       -3.41762
H         -4.88969        0.83139       -3.71783
C         -2.82334        1.27974       -4.22136
O         -3.02981        1.90280       -5.39551
C         -4.34158        2.05706       -5.86070
H         -4.95662        2.65293       -5.16348
H         -4.27494        2.58845       -6.81845
H         -4.83565        1.08363       -6.02665
C         -3.28801       -2.21792        1.24781
C         -3.70586       -3.51863        0.97119
H         -3.93831       -3.78774       -0.06063
C         -2.96163       -1.85406        2.55412
H         -2.61768       -0.83884        2.75941
C         -3.79920       -4.44746        2.00261
H         -4.12191       -5.46718        1.77416
C         -3.05436       -2.79802        3.57467
H         -2.78702       -2.50655        4.59424
C         -3.47389       -4.10839        3.32287
C         -3.59532       -5.11484        4.43031
H         -4.63942       -5.20418        4.77429
H         -2.98608       -4.83162        5.30050
H         -3.27561       -6.11517        4.10219
C         -2.61670        1.74112        0.57405
C         -3.89776        1.69441        1.11845
H         -4.20722        0.81976        1.69255
C         -2.21659        2.84439       -0.18034
H         -1.21673        2.85165       -0.61742
C         -4.77269        2.75850        0.90552
H         -5.77846        2.71411        1.33267
C         -3.10154        3.89656       -0.38457
H         -2.78106        4.75259       -0.98506
C         -4.39534        3.87551        0.15337
C         -5.33486        5.02737       -0.05917
H         -6.37146        4.75204        0.18190
H         -5.30979        5.37944       -1.10173
H         -5.06416        5.88570        0.57813
