86
Cat207.ts34.5.log	Energy: -1210768.5427033
C          1.23382       -0.21773        3.15573
H          0.68493       -0.75324        3.93536
H          2.27750       -0.52975        3.05358
C          0.90540        1.14986        2.92590
H          0.08038        1.60699        3.47688
H          1.72560        1.85635        2.74732
H          0.73412        1.27042        1.33710
Rh         0.04957       -0.20480        1.36330
C          2.68301        0.60096       -0.91287
C          3.16970       -1.82143        0.72840
C          1.43509       -1.91282       -1.65514
C         -2.70357       -0.16747       -1.03509
C         -3.08256        1.45875        1.38688
C         -1.10310        2.28642       -0.80416
P         -1.72905        0.83799        0.22451
P          1.79824       -0.87269       -0.14230
C         -0.94262       -1.67508        1.97345
O         -1.51786       -2.57570        2.41431
H          1.81922        1.23951       -1.17733
C          3.52046        0.43994       -2.18452
H          2.96958       -0.10908       -2.96200
H          4.42521       -0.15205       -1.97259
C          3.93897        1.80685       -2.72441
H          4.54902        1.68338       -3.63423
H          3.03414        2.36304       -3.03131
C          4.69860        2.61930       -1.68185
H          4.95119        3.61607       -2.07869
H          5.66026        2.11865       -1.46698
C          3.90470        2.74402       -0.38660
H          3.00058        3.35421       -0.56551
H          4.49427        3.27808        0.37649
C          3.47989        1.37631        0.13774
H          4.38165        0.80048        0.41266
H          2.88465        1.48652        1.05624
H          3.56651       -1.04535        1.40628
C          2.62796       -2.94488        1.61095
H          3.38593       -3.23765        2.35531
H          1.71754       -2.63815        2.14279
H          2.38744       -3.84278        1.02459
C          4.32019       -2.32209       -0.13657
H          4.84535       -1.51059       -0.65689
H          5.06260       -2.84376        0.49001
H          3.97789       -3.04348       -0.89518
H          2.39379       -2.05944       -2.18073
C          0.86983       -3.27873       -1.28129
H          0.45188       -3.77589       -2.17172
H          1.63594       -3.94452       -0.86276
H          0.06457       -3.18817       -0.53523
C          0.47941       -1.17294       -2.58098
H          0.84379       -0.17696       -2.87257
H          0.31235       -1.75124       -3.50421
H         -0.48982       -1.03928       -2.08686
H         -2.09411       -0.05881       -1.95067
C         -4.12612        0.27943       -1.38605
H         -4.15069        1.33361       -1.68960
H         -4.76841        0.19113       -0.49303
C         -4.71747       -0.57793       -2.50401
H         -5.74129       -0.23763       -2.73024
H         -4.12836       -0.42162       -3.42638
C         -4.71094       -2.05822       -2.14808
H         -5.10449       -2.65904       -2.98408
H         -5.39197       -2.22787       -1.29446
C         -3.30936       -2.51573       -1.76738
H         -2.65387       -2.46240       -2.65613
H         -3.31617       -3.57134       -1.45120
C         -2.71372       -1.65080       -0.66322
H         -3.29294       -1.78903        0.26702
H         -1.69081       -1.97467       -0.43057
H         -3.72201        0.55924        1.46146
C         -2.55078        1.74160        2.78642
H         -3.38856        1.95432        3.47022
H         -1.98273        0.88456        3.17224
H         -1.88656        2.62036        2.79242
C         -3.94618        2.62787        0.91886
H         -4.41165        2.46900       -0.05968
H         -4.75859        2.79659        1.64469
H         -3.36477        3.56031        0.87150
H         -0.24049        1.79558       -1.28956
C         -1.98872        2.84165       -1.91454
H         -1.41955        3.58916       -2.49169
H         -2.31078        2.06651       -2.62352
H         -2.88365        3.34765       -1.52626
C         -0.54744        3.41138        0.06286
H          0.11826        3.03029        0.84941
H          0.03277        4.11395       -0.55712
H         -1.34893        3.98909        0.54683
