76
Cat22.ts34.5.log	Energy: -1348097.9148380
C          0.46678       -3.16535        2.13612
H          0.39132       -4.21795        1.85094
H          1.45327       -2.87873        2.51887
C         -0.68578       -2.53618        2.70053
H         -1.62833       -3.08839        2.75514
H         -0.54322       -1.86234        3.55349
H         -0.78114       -1.13697        1.91197
Rh        -0.35152       -1.95939        0.57417
C          2.21120        0.25350        1.77963
C          3.01060       -1.87686       -0.01590
C          1.79376        0.58595       -1.07624
C         -2.80524       -1.81812       -1.92724
C         -3.66215       -0.89301        0.67716
C         -2.09807        0.75192       -1.12867
P         -2.16438       -0.96712       -0.43442
P          1.61329       -0.67455        0.31296
C         -0.22398       -3.31898       -0.72447
O         -0.11229       -4.12366       -1.54404
H          1.49988        1.06724        1.98131
H          2.21195       -0.42968        2.64252
H          3.20972        0.69294        1.64401
H          2.64236       -2.50452       -0.84143
H          3.02061       -2.52293        0.87577
C          4.37293       -1.34557       -0.31880
C          5.23251       -0.91180        0.70048
H          4.91704       -1.00247        1.74271
C          4.82158       -1.25401       -1.64398
H          4.17752       -1.61293       -2.45173
C          6.48114       -0.37198        0.40313
H          7.13183       -0.03421        1.21339
C          6.07303       -0.71971       -1.94503
H          6.39994       -0.65684       -2.98572
C          6.90476       -0.26678       -0.92191
H          7.88462        0.15615       -1.15495
H          0.77229        0.76225       -1.43808
H          2.33651        0.07236       -1.88488
C          2.44533        1.89532       -0.73586
C          3.83761        2.05441       -0.75043
H          4.47459        1.22197       -1.05001
C          1.65885        2.99346       -0.36349
H          0.57170        2.89926       -0.35801
C          4.42202        3.26571       -0.38770
H          5.51053        3.36181       -0.40781
C          2.24208        4.20491        0.00132
H          1.60122        5.04200        0.28921
C          3.62849        4.34622       -0.00411
H          4.08861        5.29514        0.28215
H         -3.03988       -2.86117       -1.67308
H         -3.69847       -1.32486       -2.33831
H         -2.00989       -1.82844       -2.68656
H         -3.32928       -0.37119        1.58664
H         -3.84457       -1.94097        0.96158
C         -4.88425       -0.25177        0.09832
C         -5.80915       -0.99998       -0.64284
H         -5.65755       -2.07671       -0.75802
C         -5.11588        1.12188        0.25492
H         -4.41356        1.72080        0.83987
C         -6.92113       -0.39355       -1.22349
H         -7.63137       -0.99698       -1.79413
C         -6.22566        1.73053       -0.32660
H         -6.38527        2.80312       -0.19127
C         -7.13092        0.97638       -1.07221
H         -8.00250        1.45307       -1.52690
H         -3.03310        0.92066       -1.68815
H         -1.29407        0.71665       -1.88540
C         -1.87371        1.91200       -0.19444
C         -1.36173        1.76846        1.09946
H         -1.08656        0.77335        1.45568
C         -2.18488        3.20428       -0.64186
H         -2.59355        3.33677       -1.64752
C         -1.16719        2.87913        1.92078
H         -0.76270        2.74009        2.92642
C         -1.98378        4.31555        0.17229
H         -2.22986        5.31244       -0.20151
C         -1.47411        4.15730        1.46186
H         -1.31780        5.02738        2.10373
