110
Cat269.ts34.5.log	Energy: -1642670.0385413
C         -0.93773        0.31080       -3.82875
H         -0.69469       -0.46778       -4.55682
H         -2.00169        0.56430       -3.78750
C          0.01804        1.34953       -3.61173
H          0.99140        1.30630       -4.10900
H         -0.34741        2.37753       -3.49975
H          0.09036        1.47046       -1.97916
Rh         0.01361       -0.14585       -1.96866
C         -1.49549        1.53180        0.69169
C         -3.38347        0.71682       -1.30503
C         -2.22508       -1.27060        0.66578
C          1.47381       -1.18086        1.01098
C          3.31262       -0.93133       -1.17157
C          2.23565        1.51482        0.29490
P          1.78249       -0.12654       -0.46236
P         -1.80709        0.14603       -0.47235
C          0.34929       -1.92322       -2.47223
O          0.57739       -3.01671       -2.77774
C         -1.35523        2.82335        0.14694
H         -1.51620        2.97761       -0.92358
C         -1.26196        1.38823        2.05949
H         -1.36067        0.41256        2.53544
C         -0.99192        3.90623        0.92614
H         -0.88789        4.90504        0.49813
C         -0.86037        2.46608        2.85702
H         -0.66755        2.29659        3.91694
C         -0.71406        3.73324        2.29142
O         -0.29899        4.83041        2.95761
C          0.04734        4.70329        4.30758
H          0.87585        3.98668        4.45151
H          0.37372        5.69515        4.64490
H         -0.81034        4.38145        4.92441
H         -2.97887        1.43863       -2.04152
C         -4.43413        1.46596       -0.48415
H         -3.96945        2.27908        0.09348
H         -4.89190        0.78563        0.25087
C         -5.52437        2.02250       -1.39746
H         -6.28883        2.54463       -0.79893
H         -5.08093        2.78381       -2.06519
C         -6.16715        0.92743       -2.24234
H         -6.92062        1.35719       -2.92247
H         -6.71120        0.23261       -1.57658
C         -5.12289        0.14309       -3.03006
H         -4.65954        0.80451       -3.78483
H         -5.59883       -0.67853       -3.58979
C         -4.03306       -0.40684       -2.11521
H         -4.48491       -1.13742       -1.42217
H         -3.26870       -0.95179       -2.69172
H         -1.33736       -1.29283        1.32643
C         -2.24373       -2.61919       -0.05980
H         -1.32114       -2.73390       -0.64594
H         -3.07477       -2.64381       -0.78393
C         -2.39904       -3.77565        0.92288
H         -2.45438       -4.72889        0.37175
H         -1.49132       -3.82551        1.54664
C         -3.61115       -3.60949        1.83124
H         -3.66024       -4.43363        2.56225
H         -4.53530       -3.67454        1.22816
C         -3.57726       -2.26294        2.54400
H         -2.70724       -2.23213        3.22583
H         -4.47362       -2.13411        3.17277
C         -3.47157       -1.11849        1.53972
H         -4.36624       -1.13559        0.89467
H         -3.48135       -0.14641        2.05546
C          1.22724       -0.68165        2.29818
H          1.28933        0.38820        2.49564
C          1.37157       -2.56597        0.82840
H          1.53510       -3.00123       -0.16025
C          0.86913       -1.52184        3.34502
H          0.66104       -1.12672        4.34144
C          1.04069       -3.42435        1.87338
H          0.97700       -4.49489        1.67829
C          0.76467       -2.90208        3.14290
O          0.38235       -3.63953        4.20462
C          0.25877       -5.02684        4.05319
H          1.21896       -5.49714        3.77735
H         -0.06314       -5.42170        5.02500
H         -0.49731       -5.29077        3.29304
H          2.87343       -1.85946       -1.58245
C          4.44165       -1.35302       -0.23152
H          4.04257       -1.90916        0.63065
H          4.94874       -0.46463        0.17499
C          5.46366       -2.19930       -0.98766
H          6.28504       -2.49236       -0.31336
H          4.98235       -3.13778       -1.31783
C          6.01213       -1.45923       -2.20361
H          6.72081       -2.09781       -2.75582
H          6.58967       -0.58178       -1.85892
C          4.89172       -0.98707       -3.12476
H          4.38816       -1.86439       -3.56909
H          5.30435       -0.40660       -3.96610
C          3.85723       -0.15690       -2.37140
H          4.32818        0.77883       -2.02175
H          3.02222        0.12831       -3.03177
H          1.33520        1.73006        0.90204
C          2.34722        2.65993       -0.71491
H          1.46076        2.67158       -1.36521
H          3.21544        2.49143       -1.37463
C          2.49865        4.00342       -0.00610
H          2.61461        4.80741       -0.75128
H          1.56832        4.21939        0.54481
C          3.66443        4.01532        0.97539
H          3.70191        4.97696        1.51273
H          4.61613        3.93162        0.41937
C          3.56470        2.85453        1.95747
H          2.67075        2.98807        2.59484
H          4.43485        2.84253        2.63414
C          3.45810        1.52513        1.21639
H          4.36527        1.39604        0.60318
H          3.44043        0.68289        1.92351
