54
Cat237.ts34.5.log	Energy: -1197768.5854533
C          0.58558       -3.38297       -0.77075
H         -0.18095       -3.96203       -1.29163
H          1.50598       -3.22041       -1.33738
C          0.63707       -3.45523        0.64747
H         -0.12272       -4.02239        1.19219
H          1.61518       -3.46362        1.13936
H          0.72837       -1.84866        1.15475
Rh        -0.28499       -1.54040       -0.07373
C          2.44738        0.75009       -0.06407
O          2.25585       -0.96266       -2.13006
O          0.73320        1.12434       -1.96988
C         -2.12994        1.38015        0.37813
O         -2.46070       -0.43062        2.24044
O         -0.28031        0.97432        2.14319
P         -1.25677        0.03371        1.22206
P          1.24668       -0.17410       -1.08776
C         -1.86855       -1.86216       -1.07216
O         -2.81888       -2.07205       -1.68806
C          2.38951        2.13465        0.11312
C          3.40360        0.00636        0.63977
C          4.22167        2.02122        1.68760
C          4.29198        0.63865        1.50456
C          3.27049        2.76571        0.99149
H          1.65155        2.70926       -0.44916
H          3.21652        3.84853        1.12934
H          4.91219        2.51822        2.37331
H          5.04007        0.05193        2.04336
H          3.44732       -1.07886        0.50514
C          3.25810       -0.27169       -2.84628
H          2.84488        0.60995       -3.36160
H          4.07096        0.06138       -2.17937
H          3.66772       -0.96739       -3.59170
C         -0.43073        1.04085       -2.76375
H         -0.22107        0.53426       -3.72029
H         -1.23327        0.49742       -2.24087
H         -0.76818        2.06702       -2.96197
C         -3.39004        1.12928       -0.17627
C         -1.51917        2.62140        0.17760
C         -3.41093        3.34291       -1.14184
C         -2.16046        3.59883       -0.58085
C         -4.02651        2.10805       -0.93483
H         -3.87364        0.16381       -0.01180
H         -5.01041        1.90643       -1.36480
H         -3.91082        4.10973       -1.73870
H         -1.68050        4.56886       -0.73224
H         -0.54365        2.81381        0.62598
C         -2.50231       -1.73378        2.77634
H         -2.04715       -2.45818        2.07817
H         -1.96937       -1.77969        3.74098
H         -3.55642       -1.99724        2.94225
C          0.74636        0.45377        2.95131
H          0.36493        0.22571        3.96055
H          1.17929       -0.46060        2.51155
H          1.53714        1.21331        3.02339
