98
Cat274.ts34.5.log	Energy: -1732186.9696632
C         -1.10273        0.13353       -3.80784
H         -0.84865       -0.67280       -4.50122
H         -2.17583        0.32030       -3.70104
C         -0.20032        1.23014       -3.69251
H          0.75441        1.21312       -4.22647
H         -0.61518        2.24096       -3.60683
H         -0.07780        1.44185       -2.05970
Rh        -0.06092       -0.17033       -1.96357
C         -1.76431        1.56583        0.55789
C         -3.57091        0.09921       -1.12959
C         -2.08343       -1.30550        0.78204
C          1.74175       -1.21652        0.85627
C          3.38220       -0.28058       -1.28134
C          2.01867        1.60765        0.36297
P          1.73440        0.00819       -0.50772
P         -1.86115        0.04007       -0.45252
C          0.36634       -1.95636       -2.39230
O          0.64497       -3.04487       -2.65836
C         -1.89373        2.80435       -0.09772
H         -2.18230        2.82863       -1.15266
C         -1.38064        1.58120        1.89843
H         -1.28625        0.64157        2.44436
C         -1.64428        3.99658        0.55904
H         -1.74229        4.95726        0.04962
C         -1.09653        2.77407        2.56661
H         -0.77263        2.73341        3.60649
C         -1.21419        3.99114        1.89477
O         -0.92600        5.19271        2.43809
C         -0.52011        5.23505        3.77750
H          0.40890        4.66151        3.94154
H         -0.33459        6.28952        4.01862
H         -1.30190        4.84595        4.45366
C         -3.90471       -0.86289       -2.09315
H         -3.13933       -1.57088       -2.42500
C         -4.55873        0.99710       -0.71616
H         -4.33030        1.75015        0.04167
C         -5.18899       -0.92541       -2.61988
H         -5.42737       -1.68993       -3.36509
C         -5.84211        0.93643       -1.25802
H         -6.60024        1.64872       -0.91958
C         -6.18183       -0.02122       -2.21789
C         -7.55609       -0.07241       -2.81861
H         -8.27642        0.51265       -2.22941
H         -7.55555        0.33644       -3.84281
H         -7.92734       -1.10645       -2.88457
C         -2.96858       -1.19702        1.86196
H         -3.56334       -0.28893        1.99154
C         -1.38433       -2.50240        0.61214
H         -0.69996       -2.60037       -0.23143
C         -3.09430       -2.23580        2.77990
H         -3.77377       -2.12415        3.62978
C         -1.53790       -3.54917        1.51443
H         -0.97372       -4.47286        1.36057
C         -2.37023       -3.42562        2.63075
C         -2.44209       -4.52225        3.65150
H         -2.56473       -5.50741        3.17569
H         -1.50606       -4.55457        4.23355
H         -3.27467       -4.37411        4.35357
C          1.14930       -0.94089        2.09826
H          0.78475        0.06490        2.30955
C          2.19070       -2.51795        0.61850
H          2.65202       -2.76799       -0.34026
C          1.00919       -1.92535        3.06255
H          0.53344       -1.71523        4.02208
C          2.05041       -3.52097        1.57755
H          2.40534       -4.52581        1.34774
C          1.44527       -3.23038        2.80475
O          1.22549       -4.13872        3.77980
C          1.62506       -5.46324        3.56626
H          2.71540       -5.54381        3.41146
H          1.35268       -6.02468        4.46901
H          1.11078       -5.91287        2.69822
C          3.47936       -0.32703       -2.67178
H          2.56142       -0.22981       -3.25920
C          4.55087       -0.43010       -0.52172
H          4.50062       -0.41165        0.56928
C          4.71457       -0.51218       -3.29268
H          4.76781       -0.54872       -4.38434
C          5.77766       -0.61850       -1.14420
H          6.67755       -0.73861       -0.53378
C          5.88346       -0.66015       -2.54302
C          7.21714       -0.85963       -3.20109
H          7.69717       -1.78904       -2.85589
H          7.12378       -0.91275       -4.29467
H          7.90543       -0.03339       -2.96062
C          2.76987        1.70843        1.54182
H          3.16973        0.81040        2.01715
C          1.52157        2.78527       -0.19975
H          0.91971        2.72511       -1.10840
C          2.99953        2.94608        2.13638
H          3.57963        2.99518        3.06249
C          1.76293        4.02085        0.39020
H          1.34621        4.92238       -0.06632
C          2.50339        4.12673        1.57092
C          2.76656        5.46767        2.19053
H          1.88904        6.12411        2.09543
H          3.02368        5.38083        3.25621
H          3.60932        5.97318        1.69006
