54
Cat295.ts34.5.log	Energy: -1322257.8226072
C         -0.91843       -3.73936       -0.46553
H         -1.86541       -4.00473       -0.94235
H         -0.02025       -4.00391       -1.02938
C         -0.86583       -3.70737        0.95442
H         -1.77477       -3.87659        1.53803
H          0.04072       -4.06496        1.45328
H         -0.12959       -2.24207        1.31801
Rh        -0.96412       -1.65221        0.06146
C          2.34323       -0.24585       -0.19356
O          1.71561       -2.39380       -1.72363
O          0.88946       -0.03752       -2.32298
C         -1.35861        1.77420        0.35561
O         -2.67236        0.40219        2.13495
O         -0.09932        0.48715        2.37707
P         -1.28126        0.20488        1.27358
P          0.96021       -1.09110       -1.04744
C         -2.52536       -1.35208       -0.97762
O         -3.46985       -1.15879       -1.60684
C          3.11241        0.75731       -0.79844
H          2.88455        1.05542       -1.82356
C          2.61392       -0.60397        1.13156
H          1.98863       -1.35460        1.62066
C          4.13784        1.38556       -0.09795
H          4.74574        2.17197       -0.54947
C          3.64196        0.00933        1.84129
H          3.86292       -0.25529        2.87682
C          4.38971        0.99880        1.21431
F          5.36645        1.59980        1.88978
C          2.90344       -2.27083       -2.47278
H          2.78320       -1.55240       -3.29986
H          3.74757       -1.94545       -1.84115
H          3.13234       -3.26142       -2.88976
C         -0.29977        0.11634       -3.06514
H         -0.68720       -0.84927       -3.42799
H         -1.08169        0.60833       -2.46471
H         -0.05999        0.75248       -3.92851
C         -2.57850        2.34404       -0.02240
H         -3.51038        1.90688        0.34089
C         -0.16253        2.34070       -0.10394
H          0.79500        1.89852        0.18152
C         -2.60826        3.46080       -0.85390
H         -3.54854        3.92036       -1.16379
C         -0.17998        3.45972       -0.92900
H          0.74174        3.91485       -1.29558
C         -1.40696        4.00160       -1.29713
F         -1.43069        5.06733       -2.09396
C         -3.30671       -0.71357        2.72327
H         -3.18693       -1.60846        2.08814
H         -2.88819       -0.92432        3.72129
H         -4.37428       -0.47485        2.82677
C         -0.14611        1.60707        3.23785
H         -0.08520        2.55249        2.67424
H         -1.07222        1.61231        3.83376
H          0.72070        1.53469        3.90848
