86
Cat270.ts34.5.log	Energy: -1633577.5299750
C         -1.21504       -0.31535       -3.74248
H         -0.76771       -1.04496       -4.42289
H         -2.29286       -0.43296       -3.59403
C         -0.65354        0.99228       -3.69593
H          0.24667        1.22320       -4.27316
H         -1.33137        1.84959       -3.61537
H         -0.52721        1.29468       -2.07629
Rh        -0.06856       -0.24760       -1.93471
C         -2.15108        1.03937        0.57025
C         -3.47302       -0.98535       -0.99336
C         -1.63524       -1.78188        0.94193
C          2.06754       -0.65045        0.81311
C          3.29319        0.62319       -1.43207
C          1.54254        2.11628        0.25099
P          1.66367        0.47071       -0.57752
P         -1.81054       -0.49613       -0.36608
C          0.81425       -1.86874       -2.32813
O          1.36654       -2.85197       -2.57310
C         -2.68513        2.13848       -0.12743
H         -3.01440        2.01305       -1.16310
C         -1.72599        1.24731        1.88236
H         -1.31636        0.41428        2.45634
C         -2.78501        3.38543        0.46363
H         -3.19729        4.23984       -0.07684
C         -1.79441        2.50617        2.48302
H         -1.42385        2.62855        3.50075
C         -2.31381        3.58797        1.77009
O         -2.38406        4.84989        2.23913
C         -1.87001        5.11855        3.51353
H         -0.79712        4.86620        3.58051
H         -1.99611        6.19539        3.68382
H         -2.41497        4.56823        4.30098
C         -3.51013       -2.05000       -1.90438
C         -4.67687       -0.40159       -0.58405
C         -5.92089       -1.93235       -1.98345
C         -5.89271       -0.87075       -1.08125
C         -4.72501       -2.52508       -2.39005
H         -2.56916       -2.50418       -2.22897
H         -4.73809       -3.35906       -3.09606
H         -6.87472       -2.29840       -2.37097
H         -6.82577       -0.40435       -0.75493
H         -4.66787        0.42321        0.13216
C         -0.62328       -2.73617        0.82556
C         -2.53932       -1.87322        2.01002
C         -1.38777       -3.82842        2.83870
C         -2.40798       -2.88233        2.95915
C         -0.50457       -3.75944        1.76539
H          0.07866       -2.66578       -0.00672
H          0.29358       -4.49746        1.65981
H         -1.28628       -4.62182        3.58319
H         -3.11292       -2.93946        3.79234
H         -3.35496       -1.15056        2.09636
C          1.50545       -0.47748        2.08723
H          0.90668        0.41008        2.29730
C          2.81973       -1.80431        0.57764
H          3.26410       -1.97444       -0.40627
C          1.69234       -1.41755        3.08727
H          1.24551       -1.29266        4.07508
C          3.01189       -2.76117        1.57339
H          3.60191       -3.64950        1.34697
C          2.44073       -2.57463        2.83724
O          2.54559       -3.45001        3.85641
C          3.25558       -4.63867        3.65347
H          4.31549       -4.44955        3.40730
H          3.20571       -5.20069        4.59470
H          2.81088       -5.25113        2.84880
C          3.30770        0.67399       -2.82800
C          4.50430        0.71827       -0.73411
C          5.70830        0.92924       -2.81824
C          5.70399        0.86835       -1.42364
C          4.50877        0.83105       -3.51917
H          2.35719        0.56774       -3.35883
H          4.50613        0.86777       -4.61124
H          6.65154        1.04599       -3.35760
H          6.64355        0.93508       -0.86955
H          4.51459        0.65666        0.35625
C          0.64135        3.06686       -0.23182
C          2.37358        2.46359        1.32670
C          1.39340        4.67033        1.40802
C          2.29667        3.72831        1.90250
C          0.56657        4.33631        0.33921
H         -0.02108        2.79722       -1.05643
H         -0.15598        5.06017       -0.04331
H          1.33502        5.66485        1.85761
H          2.94991        3.98074        2.74148
H          3.08033        1.73614        1.73042
