106
Cat213.ts34.5.log	Energy: -1781763.0433893
C         -0.55952       -2.83268       -2.41492
H         -0.38945       -3.87584       -2.13449
H         -1.53831       -2.64508       -2.86824
C          0.55361       -2.07632       -2.90767
H          1.55749       -2.51307       -2.89732
H          0.39028       -1.43822       -3.78632
H          0.38193       -0.69849       -2.16688
Rh         0.05921       -1.54474       -0.82265
C         -2.11299        1.32175       -1.29276
C         -3.43818       -0.98772       -0.09062
C         -1.59557        0.48116        1.44603
C          2.04723        0.11234        1.79868
C          3.41864       -0.72422       -0.61311
C          1.62086        1.49991       -0.71961
P          1.76798       -0.19120       -0.01815
P         -1.79018       -0.19155       -0.24998
C          0.03647       -2.94676        0.43777
O         -0.05597       -3.82345        1.18436
H         -1.20417        1.93057       -1.12528
C         -3.34638        2.15528       -0.94918
H         -3.35897        2.43175        0.11608
H         -4.24857        1.54318       -1.11921
C         -3.42087        3.40637       -1.82119
H         -4.31417        3.99739       -1.55995
H         -2.54541        4.04832       -1.60930
C         -3.43134        3.04698       -3.30209
H         -3.44799        3.95845       -3.92195
H         -4.36242        2.49702       -3.53020
C         -2.23130        2.17976       -3.66356
H         -1.30914        2.77574       -3.54671
H         -2.27768        1.87977       -4.72335
C         -2.13238        0.94380       -2.77475
H         -2.99209        0.27474       -2.96536
H         -1.22592        0.36837       -3.01664
C         -4.47396       -0.44754        0.69257
H         -4.30351        0.47098        1.25847
C         -3.67909       -2.19191       -0.75236
H         -2.86515       -2.64725       -1.31878
C         -5.70508       -1.07547        0.78180
H         -6.51137       -0.66481        1.39270
C         -4.91567       -2.83475       -0.67799
H         -5.05921       -3.77647       -1.20821
C         -5.94073       -2.27335        0.08919
O         -7.16753       -2.81151        0.23372
C         -7.45568       -4.01635       -0.41769
H         -6.79740       -4.83528       -0.07760
H         -8.49399       -4.26929       -0.16801
H         -7.36524       -3.92277       -1.51447
C         -1.57749       -0.44948        2.50322
H         -1.77506       -1.50401        2.29257
C         -1.34073        1.81638        1.75543
H         -1.35234        2.57342        0.97110
C         -1.29388       -0.06237        3.79932
H         -1.27556       -0.78623        4.61615
C         -1.02930        2.22144        3.05921
H         -0.81800        3.27378        3.25236
C         -0.99094        1.27840        4.08738
O         -0.66156        1.55058        5.36743
C         -0.29143        2.85773        5.70131
H         -1.11353        3.57519        5.53022
H         -0.04274        2.85271        6.77009
H          0.59412        3.19049        5.13047
H          1.14250        0.66369        2.11344
C          3.28982        0.94327        2.12222
H          3.29034        1.89362        1.56690
H          4.18352        0.39029        1.78621
C          3.40402        1.20294        3.62148
H          4.30193        1.80720        3.83126
H          2.53600        1.80135        3.95548
C          3.44169       -0.10557        4.40088
H          3.49514        0.08942        5.48450
H          4.36372       -0.65417        4.13563
C          2.22658       -0.96463        4.07559
H          1.32171       -0.45721        4.45134
H          2.28310       -1.93144        4.60155
C          2.07134       -1.20396        2.57615
H          2.90860       -1.82628        2.21033
H          1.15037       -1.76964        2.38314
C          4.46168        0.17059       -0.90389
H          4.29601        1.24647       -0.80983
C          3.66156       -2.09133       -0.76364
H          2.84201       -2.79110       -0.57160
C          5.70007       -0.28971       -1.32247
H          6.51364        0.39900       -1.55842
C          4.90683       -2.57044       -1.16965
H          5.05647       -3.64548       -1.27242
C          5.93645       -1.66643       -1.45398
O          7.16918       -2.02134       -1.86473
C          7.46449       -3.38135       -2.01684
H          6.82023       -3.85952       -2.77572
H          8.50848       -3.44168       -2.34955
H          7.36053       -3.93342       -1.06607
C          1.70196        1.64863       -2.11697
H          1.99417        0.79361       -2.73244
C          1.26239        2.62006        0.02840
H          1.19604        2.55616        1.11439
C          1.40059        2.84832       -2.73443
H          1.45548        2.95926       -3.81896
C          0.93788        3.83724       -0.58065
H          0.64158        4.68049        0.04398
C          0.98674        3.95192       -1.97098
O          0.64981        5.05893       -2.66173
C          0.17579        6.17225       -1.95772
H          0.93422        6.57248       -1.26192
H         -0.06037        6.94065       -2.70452
H         -0.74007        5.93508       -1.38752
