102
Cat260.ts34.5.log	Energy: -1687157.6022655
C          0.18546        2.89152        2.85699
H         -0.21255        2.84228        3.87388
H          1.26388        3.07123        2.80591
C         -0.64884        3.41580        1.82947
H         -1.68663        3.67978        2.04961
H         -0.20800        4.05691        1.05788
H         -0.47608        2.33390        0.59903
Rh        -0.52487        1.19739        1.74797
C          1.76083        0.60283       -0.89500
C          3.00342        1.11129        1.70731
C          1.74547       -1.49446        1.17115
C         -2.05788       -1.56898        0.09781
C         -3.87534        0.35234        1.09485
C         -2.30868        0.93291       -1.30654
P         -2.12847        0.24451        0.41128
P          1.49182        0.34842        0.89884
C         -0.96954        0.23760        3.30842
O         -1.23676       -0.35246        4.26559
C          1.12985       -0.24949       -1.81564
C          2.44855        1.71617       -1.39493
C          1.94745        1.06995       -3.67081
C          2.54941        1.94315       -2.76698
C          1.22799       -0.02259       -3.18539
H          0.55903       -1.10913       -1.46129
H          0.74012       -0.71186       -3.87887
H          2.02951        1.24453       -4.74596
H          3.09907        2.81527       -3.12973
H          2.90378        2.43353       -0.70984
H          2.99751        2.16982        1.40571
H          2.73217        1.10634        2.77405
C          4.34533        0.48070        1.50638
C          4.79718       -0.50459        2.39500
H          4.19311       -0.76203        3.26923
C          5.16708        0.81640        0.42212
H          4.84108        1.58676       -0.27828
C          6.00638       -1.15844        2.17385
H          6.33782       -1.93459        2.86773
C          6.38549        0.17369        0.18600
C          7.23842        0.56233       -0.98658
H          6.63053        0.97320       -1.80561
H          7.97433        1.33300       -0.70231
H          7.80130       -0.29819       -1.37667
C          6.79233       -0.83079        1.07222
H          7.73611       -1.35518        0.89943
H          2.42253       -1.55098        2.03822
H          0.76978       -1.86383        1.51043
C          2.24959       -2.36063        0.05257
C          1.42387       -3.36648       -0.46574
H          0.43264       -3.52369       -0.03697
C          3.50976       -2.17483       -0.51965
H          4.16176       -1.39044       -0.13634
C          1.85096       -4.14872       -1.53458
H          1.19318       -4.92622       -1.93165
C          3.95353       -2.94861       -1.59606
C          5.30414       -2.68504       -2.19707
H          6.08789       -2.68309       -1.42379
H          5.56687       -3.43757       -2.95403
H          5.33009       -1.69470       -2.68045
C          3.10697       -3.94027       -2.10147
H          3.43540       -4.55285       -2.94583
C         -1.86541       -2.40749        1.20596
C         -2.27813       -2.15559       -1.15324
C         -2.14957       -4.36608       -0.17979
C         -2.31348       -3.54349       -1.29187
C         -1.92542       -3.79232        1.07268
H         -1.68206       -1.97046        2.19026
H         -1.78426       -4.42701        1.95068
H         -2.18714       -5.45259       -0.28826
H         -2.48588       -3.98214       -2.27759
H         -2.44672       -1.53516       -2.03443
H         -3.78914       -0.05352        2.11417
H         -4.07619        1.42868        1.20354
C         -4.93220       -0.35661        0.30605
C         -5.66818        0.29668       -0.69295
H         -5.52702        1.36597       -0.86486
C         -5.17063       -1.71965        0.51453
H         -4.61162       -2.24104        1.29593
C         -6.59120       -0.40414       -1.46401
H         -7.16083        0.11905       -2.23599
C         -6.08623       -2.44263       -0.25583
C         -6.27622       -3.91212       -0.01471
H         -5.34070       -4.46151       -0.20733
H         -6.55807       -4.11245        1.03092
H         -7.05794       -4.33173       -0.66326
C         -6.79440       -1.76666       -1.25407
H         -7.51678       -2.31191       -1.86756
H         -1.50256        0.47056       -1.89441
H         -3.27236        0.59179       -1.71740
C         -2.17410        2.42453       -1.37317
C         -3.20050        3.27992       -0.95329
H         -4.14741        2.86784       -0.60127
C         -0.97795        2.99132       -1.82310
H         -0.17208        2.33129       -2.15267
C         -3.02285        4.65957       -0.97812
H         -3.83130        5.31693       -0.64895
C         -0.78106        4.37727       -1.85328
C          0.52676        4.94724       -2.32057
H          0.82817        4.51476       -3.28636
H          0.47458        6.03945       -2.43141
H          1.33336        4.71770       -1.60534
C         -1.82040        5.20659       -1.42207
H         -1.68766        6.29180       -1.43797
