102
Cat271.ts34.5.log	Energy: -1920849.7057795
C         -0.94115       -0.20724       -3.82306
H         -0.84339       -1.13891       -4.38705
H         -1.95667        0.19976       -3.79139
C          0.16015        0.69659       -3.82020
H          1.09902        0.41579       -4.30636
H         -0.04329        1.77116       -3.89080
H          0.28595        1.11647       -2.22667
Rh        -0.00500       -0.43730       -1.91139
C         -1.59106        1.99896        0.06572
C         -3.48101        0.31947       -1.27768
C         -2.16540       -0.71821        0.95781
C          1.47024       -1.15041        1.19974
C          3.29564       -1.20189       -1.00178
C          2.39733        1.29726        0.08893
P          1.76937       -0.35591       -0.42606
P         -1.79704        0.28325       -0.53804
C          0.11547       -2.31456       -2.06103
O          0.21657       -3.46185       -2.14707
C         -1.72331        3.04044       -0.87213
H         -2.09451        2.81793       -1.87682
C         -1.09930        2.32575        1.33014
H         -0.97448        1.54376        2.08011
C         -1.37087        4.34146       -0.55785
H         -1.46522        5.14794       -1.28773
C         -0.72798        3.63158        1.65798
H         -0.31771        3.83404        2.64745
C         -0.84898        4.64769        0.70872
O         -0.47244        5.92776        0.90220
C          0.19114        6.26246        2.09078
H          1.14366        5.71353        2.19061
H          0.40778        7.33690        2.03507
H         -0.43617        6.07409        2.97989
C         -4.46073        1.27028       -0.95387
H         -4.21946        2.09130       -0.27429
C         -3.83123       -0.72069       -2.14133
H         -3.07682       -1.46918       -2.40062
C         -5.73857        1.18633       -1.48542
H         -6.50520        1.92477       -1.24245
C         -5.11550       -0.82537       -2.67393
H         -5.34886       -1.65409       -3.34280
C         -6.07888        0.13638       -2.35028
O         -7.34345        0.13543       -2.81818
C         -7.74189       -0.89286       -3.67943
H         -7.66291       -1.88496       -3.20044
H         -8.79328       -0.70388       -3.93125
H         -7.14877       -0.90272       -4.61119
C         -1.81259       -2.07317        0.92923
H         -1.27297       -2.46133        0.06381
C         -2.86091       -0.24354        2.07342
H         -3.19638        0.79566        2.10852
C         -2.12330       -2.91822        1.98126
H         -1.84756       -3.97355        1.95409
C         -3.13631       -1.07117        3.16177
H         -3.65470       -0.65856        4.02780
C         -2.75778       -2.41833        3.12263
O         -2.95735       -3.29798        4.12786
C         -3.39434       -2.81220        5.36544
H         -4.40916       -2.38072        5.30759
H         -3.41849       -3.66983        6.05034
H         -2.70099       -2.05200        5.76584
C          1.06091       -0.39225        2.30607
H          1.05191        0.69661        2.23722
C          1.49146       -2.54212        1.32978
H          1.79721       -3.16340        0.48368
C          0.66142       -0.99995        3.48523
H          0.32124       -0.41228        4.33983
C          1.11245       -3.16592        2.51757
H          1.13372       -4.25437        2.57618
C          0.67028       -2.39494        3.59881
O          0.23046       -2.89795        4.77022
C          0.12795       -4.28773        4.91229
H          1.10785       -4.78542        4.80597
H         -0.25205       -4.47142        5.92544
H         -0.58306       -4.71703        4.18693
C          4.28019       -1.70634       -0.13639
H          4.13133       -1.66427        0.94528
C          3.50583       -1.31825       -2.37617
H          2.72369       -0.96056       -3.05218
C          5.43415       -2.29108       -0.63264
H          6.19950       -2.69483        0.03300
C          4.66501       -1.89631       -2.89171
H          4.78872       -1.97035       -3.97233
C          5.64069       -2.38623       -2.01707
O          6.79049       -2.96920       -2.40765
C          7.04730       -3.10355       -3.77726
H          7.09358       -2.12380       -4.28480
H          8.02378       -3.59611       -3.86782
H          6.28575       -3.72632       -4.27900
C          1.83559        2.47532       -0.41390
H          1.01366        2.41044       -1.12956
C          3.43424        1.41360        1.02172
H          3.89911        0.51733        1.43694
C          2.27698        3.72215        0.00534
H          1.82439        4.63869       -0.37675
C          3.88381        2.65539        1.46206
H          4.68646        2.70036        2.19848
C          3.29371        3.82247        0.95962
O          3.62669        5.07167        1.35216
C          4.66383        5.23445        2.27861
H          5.61806        4.82747        1.90094
H          4.77767        6.31434        2.43783
H          4.43229        4.75367        3.24569
