74
Cat294.ts34.5.log	Energy: -1330719.5853057
C         -0.77881       -3.71674       -0.65077
H         -0.16747       -4.52596       -0.24238
H         -1.83702       -3.77954       -0.37922
C         -0.43534       -3.19959       -1.93708
H          0.46599       -3.55661       -2.44375
H         -1.24565       -2.97227       -2.64030
H         -0.51570       -1.57766       -1.72125
Rh         0.19079       -1.84556       -0.29249
C         -2.04109        0.83486       -0.42929
C         -3.23137       -1.53346        0.70049
C         -1.32523        0.19776        2.30929
C          1.78125        1.09815        0.60730
C          3.42536       -0.67370       -0.94857
C          1.20904        0.98835       -2.23474
P          1.64689       -0.10271       -0.78189
P         -1.60349       -0.59923        0.63929
C          1.36951       -2.61197        0.95420
O          2.11127       -3.08372        1.70678
C         -1.87521        2.17752       -0.06895
H         -1.54611        2.44371        0.93512
C         -2.46204        0.55938       -1.74197
H         -2.58002       -0.47922       -2.06214
C         -2.10008        3.20886       -0.98274
H         -1.96272        4.25564       -0.70448
C         -2.70773        1.57289       -2.65959
H         -3.03372        1.35673       -3.67862
C         -2.51347        2.89455       -2.26855
F         -2.72938        3.87261       -3.14679
H         -3.20199       -2.05664       -0.27286
C         -3.18207       -2.60191        1.78837
H         -3.98313       -3.34252        1.63493
H         -2.21840       -3.13301        1.79297
H         -3.33247       -2.16146        2.78568
C         -4.52222       -0.72550        0.74934
H         -4.55716        0.04976       -0.02924
H         -5.38462       -1.39481        0.59310
H         -4.66415       -0.23330        1.72070
H         -0.57809        0.96864        2.04958
C         -2.52746        0.87587        2.95922
H         -2.19372        1.49733        3.80645
H         -3.08710        1.52228        2.26891
H         -3.22946        0.13176        3.36384
C         -0.63957       -0.75027        3.28709
H          0.22959       -1.23851        2.82923
H         -0.29480       -0.18764        4.16929
H         -1.32024       -1.53848        3.64040
C          2.28418        0.62689        1.83179
H          2.63470       -0.40376        1.91920
C          1.31612        2.41767        0.55500
H          0.90772        2.82533       -0.36910
C          2.32404        1.43626        2.96073
H          2.71136        1.06851        3.91250
C          1.33688        3.23930        1.68239
H          0.96900        4.26648        1.64522
C          1.84062        2.73765        2.87365
F          1.86296        3.51532        3.95394
H          3.51437       -1.29102       -0.03773
C          3.57360       -1.61664       -2.13653
H          4.53325       -2.15403       -2.07948
H          2.76157       -2.35952       -2.14962
H          3.56108       -1.06861       -3.09145
C          4.52207        0.38290       -0.90069
H          4.36840        1.10552       -0.08598
H          5.49539       -0.10604       -0.73205
H          4.60029        0.94240       -1.84227
H          0.30035        1.48945       -1.85522
C          2.24202        2.04723       -2.61250
H          1.77655        2.80422       -3.26429
H          2.67254        2.56749       -1.74634
H          3.07104        1.59960       -3.17995
C          0.78546        0.20066       -3.46918
H          0.00230       -0.53122       -3.23453
H          0.38842        0.89359       -4.22779
H          1.62979       -0.34085       -3.92079
