98
Cat257.ts34.5.log	Energy: -1403441.2690828
C         -0.73959       -3.39273       -1.16046
H         -0.80152       -4.23891       -0.47075
H         -1.64965       -3.22921       -1.74731
C          0.52295       -3.11759       -1.77439
H          1.40510       -3.69125       -1.47543
H          0.53972       -2.85246       -2.83792
H          0.64691       -1.49324       -1.63529
Rh         0.04257       -1.68853       -0.14147
C         -1.14716        1.23494       -1.71305
C         -3.18787       -0.75344       -1.41019
C         -2.31580        0.75027        0.88657
C          1.14550        1.07167        1.70845
C          3.17043       -0.90765        1.32939
C          2.38029        0.77190       -0.89527
P          1.67921       -0.20343        0.49826
P         -1.65023       -0.12969       -0.59021
C         -0.18227       -2.43337        1.57606
O         -0.32575       -2.86117        2.64034
C         -0.99013        2.56358       -1.29727
C         -0.74901        0.89777       -3.01699
C         -0.04415        3.16963       -3.44088
C         -0.21296        1.85238       -3.87443
C         -0.43599        3.51930       -2.15124
H         -1.27907        2.86165       -0.28879
H         -0.31195        4.54742       -1.80108
H          0.39256        3.91721       -4.10706
H          0.09135        1.56532       -4.88406
H         -0.82994       -0.14040       -3.35202
H         -2.86924       -1.22308       -2.35640
H         -3.83504        0.09674       -1.67675
C         -3.90897       -1.77319       -0.53782
H         -3.16086       -2.46034       -0.10697
H         -4.37682       -1.26103        0.32240
C         -4.98051       -2.59106       -1.26155
H         -4.48592       -3.10068       -2.11074
C         -5.54030       -3.66465       -0.33598
H         -4.74270       -4.32024        0.04649
H         -6.28014       -4.29624       -0.85193
H         -6.04152       -3.20851        0.53424
C         -6.09547       -1.71654       -1.82399
H         -6.86054       -2.32395       -2.33219
H         -5.71851       -0.98260       -2.55207
H         -6.59744       -1.15809       -1.01547
H         -1.46622        1.31988        1.29628
H         -2.49747       -0.04601        1.62499
C         -3.53956        1.64107        0.70837
H         -3.47577        2.19085       -0.24570
H         -4.44775        1.01719        0.63033
C         -3.73065        2.65638        1.83902
H         -2.82392        3.29183        1.86104
C         -4.92840        3.55434        1.55498
H         -4.82907        4.06339        0.58333
H         -5.04629        4.32714        2.33058
H         -5.86114        2.96635        1.52801
C         -3.85299        1.98645        3.20275
H         -4.00633        2.73280        3.99787
H         -2.95073        1.41160        3.45872
H         -4.71302        1.29561        3.22463
C          0.71178        0.64471        2.97319
C          1.03092        2.43006        1.38800
C          0.05499        2.89743        3.55114
C          0.48546        3.33411        2.30069
C          0.17753        1.54809        3.88686
H          0.76089       -0.41403        3.23889
H         -0.16005        1.19307        4.86351
H         -0.37760        3.60440        4.26285
H          0.39592        4.38856        2.02728
H          1.34492        2.79392        0.40920
H          2.81552       -1.34538        2.27723
H          3.85829       -0.08679        1.58684
C          3.83545       -1.97945        0.47964
H          3.05631       -2.69864        0.17345
H          4.22115       -1.53243       -0.45577
C          4.97612       -2.73108        1.16862
H          4.56753       -3.16410        2.10124
C          5.45463       -3.88075        0.28962
H          4.63032       -4.56808        0.04371
H          6.24571       -4.46498        0.78483
H          5.86691       -3.50145       -0.66061
C          6.13441       -1.81317        1.54383
H          6.94893       -2.37655        2.02509
H          5.82617       -1.01962        2.24103
H          6.55260       -1.32632        0.64611
H          1.54182        1.37745       -1.27815
H          2.57207        0.03037       -1.68539
C          3.61121        1.62764       -0.62410
H          3.54386        2.09250        0.37388
H          4.50969        0.98545       -0.59244
C          3.82607        2.73579       -1.65929
H          2.93307        3.38978       -1.62425
C          5.04210        3.57828       -1.29490
H          4.95251        3.99780       -0.28052
H          5.17636        4.41650       -1.99617
H          5.96234        2.97102       -1.32321
C          3.93601        2.18915       -3.07810
H          4.11355        3.00056       -3.80099
H          3.01850        1.66707       -3.38801
H          4.77682        1.47950       -3.16143
