98
Cat293.ts34.5.log	Energy: -1527927.0511069
C          0.59164       -2.67166       -2.21637
H          0.67306       -3.71717       -1.90700
H         -0.22042       -2.47961       -2.92558
C          1.79523       -1.91011       -2.33684
H          2.74848       -2.35032       -2.03014
H          1.90450       -1.23516       -3.19386
H          1.39599       -0.49530       -1.61591
Rh         0.65493       -1.40332       -0.49901
C         -1.03684        1.56563       -1.33480
C         -2.45645       -0.77536       -2.16569
C         -2.44304       -0.03884        0.62122
C          0.52665        0.47568        2.44224
C          3.08070       -0.69206        1.98488
C          2.20780        1.63930        0.45761
P          1.63623       -0.00946        1.05364
P         -1.31936       -0.17825       -0.83384
C          0.39698       -2.83838        0.69660
O          0.22942       -3.71885        1.42680
C         -1.25539        2.66283       -0.49160
H         -1.71787        2.52184        0.48679
C         -0.42069        1.80050       -2.57514
H         -0.20561        0.95890       -3.23939
C         -0.86452        3.95035       -0.86417
H         -1.01995        4.80721       -0.20580
C         -0.04145        3.07769       -2.96889
H          0.44255        3.26176       -3.92989
C         -0.26105        4.14053       -2.09867
F          0.14323        5.36220       -2.45157
H         -3.27079       -0.04949       -2.32483
H         -1.86434       -0.79629       -3.09592
C         -2.99706       -2.16691       -1.86562
H         -2.16417       -2.81168       -1.53516
H         -3.69379       -2.11746       -1.01055
C         -3.70494       -2.80808       -3.05061
H         -3.00203       -2.87112       -3.90170
H         -4.52741       -2.15228       -3.39046
C         -4.25420       -4.19528       -2.74855
H         -3.42801       -4.84078       -2.40189
H         -4.95571       -4.12852       -1.89801
C         -4.94851       -4.84290       -3.93553
H         -5.33406       -5.84292       -3.68553
H         -4.25936       -4.95613       -4.78797
H         -5.80017       -4.23496       -4.28139
H         -2.52830       -1.06738        1.00881
H         -1.86787        0.49643        1.39248
C         -3.81854        0.58812        0.44593
H         -3.73544        1.56415       -0.06213
H         -4.43814       -0.03950       -0.21704
C         -4.53390        0.77056        1.77889
H         -3.90208        1.37992        2.45125
H         -4.62667       -0.21096        2.27863
C         -5.90899        1.41106        1.65943
H         -5.80843        2.39073        1.15908
H         -6.53801        0.79850        0.98925
C         -6.60670        1.58828        2.99837
H         -7.59354        2.06205        2.88481
H         -6.01014        2.21742        3.67854
H         -6.75833        0.61916        3.50035
C          0.15048        1.79750        2.71179
H          0.59680        2.62541        2.16066
C         -0.07325       -0.54761        3.19387
H          0.18227       -1.59112        2.99804
C         -0.82194        2.09169        3.66791
H         -1.13134        3.11888        3.87008
C         -1.03063       -0.26996        4.16240
H         -1.50826       -1.06495        4.73772
C         -1.40842        1.05158        4.37439
F         -2.35740        1.32408        5.26751
H          3.51290        0.10548        2.61366
H          2.65610       -1.44477        2.67072
C          4.12672       -1.34746        1.09623
H          3.60947       -2.04382        0.41301
H          4.60234       -0.58976        0.45026
C          5.20170       -2.08732        1.87907
H          4.72302       -2.85305        2.51648
H          5.70265       -1.38951        2.57499
C          6.24503       -2.75083        0.99083
H          5.73700       -3.44199        0.29529
H          6.71839       -1.98248        0.35381
C          7.31423       -3.50031        1.76905
H          8.05243       -3.96789        1.09997
H          6.87222       -4.29899        2.38628
H          7.86088       -2.82614        2.44815
H          1.28451        2.20851        0.26450
H          2.73540        2.14303        1.28604
C          3.03705        1.67054       -0.81618
H          4.00435        1.15996       -0.67548
H          2.50246        1.09992       -1.59374
C          3.26194        3.09466       -1.30641
H          3.90845        3.64082       -0.59569
H          2.29478        3.62629       -1.29781
C          3.84946        3.18248       -2.70694
H          4.84371        2.70202       -2.72533
H          3.21844        2.58837       -3.39216
C          3.94793        4.61143       -3.21701
H          4.35534        4.65498       -4.23847
H          4.60063        5.22219       -2.57262
H          2.95651        5.09289       -3.22774
