78
Cat241.ts34.5.log	Energy: -1489942.1626701
C         -0.67488       -1.17551       -3.24139
H         -0.21976       -2.11948       -3.55252
H         -1.76356       -1.12944       -3.34106
C          0.08102        0.01586       -3.37016
H          1.11375       -0.02187       -3.72848
H         -0.43822        0.93725       -3.65649
H          0.04768        0.75438       -1.89843
Rh         0.04658       -0.72960       -1.25204
C         -2.02216        1.71425        0.26186
C         -3.50313       -0.36212       -1.07116
C         -2.34670       -0.85060        1.44831
C          1.93224       -0.17083        1.68188
C          3.49254       -0.93682       -0.56739
C          2.43367        1.72931       -0.42233
P          1.94797       -0.02581       -0.15274
P         -1.92792       -0.06844       -0.16349
C          0.29060       -2.53486       -0.77689
O          0.44715       -3.63130       -0.45926
C         -1.87936        2.16867        1.57819
C         -2.08497        2.65947       -0.77489
C         -1.88667        4.46604        0.81705
C         -2.03357        4.02217       -0.49904
C         -1.80265        3.53526        1.85002
H         -1.81620        1.44793        2.39619
H         -1.68180        3.87287        2.88237
H         -1.83443        5.53556        1.03411
H         -2.09465        4.74303       -1.31814
H         -2.16368        2.32085       -1.81180
C         -3.67277       -1.64432       -1.61372
C         -4.52991        0.57642       -1.22388
C         -5.85870       -1.03704       -2.44130
C         -5.69759        0.24068       -1.90999
C         -4.84387       -1.98207       -2.28544
H         -2.87051       -2.37954       -1.50157
H         -4.96227       -2.98761       -2.69645
H         -6.77457       -1.29781       -2.97707
H         -6.49023        0.98472       -2.02239
H         -4.42537        1.57601       -0.79684
C         -1.34219       -1.49334        2.17408
C         -3.64282       -0.79071        1.97960
C         -2.90880       -1.99674        3.94063
C         -3.92081       -1.36149        3.21809
C         -1.61989       -2.06059        3.41745
H         -0.33487       -1.54191        1.75900
H         -0.81955       -2.55419        3.97286
H         -3.13014       -2.44633        4.91187
H         -4.93523       -1.31354        3.62179
H         -4.43995       -0.29868        1.41715
C          2.15962       -1.42836        2.26151
C          1.56089        0.89618        2.50683
C          1.65668       -0.53910        4.45178
C          1.42024        0.70977        3.88152
C          2.03099       -1.60743        3.63620
H          2.43732       -2.27700        1.63079
H          2.22026       -2.59174        4.07187
H          1.54856       -0.68119        5.52956
H          1.12742        1.55324        4.51160
H          1.37849        1.88285        2.07659
C          3.54301       -1.65596       -1.76451
C          4.62565       -0.90655        0.25844
C          5.82826       -2.29155       -1.31434
C          5.78528       -1.58190       -0.11321
C          4.70634       -2.32702       -2.13957
H          2.64365       -1.69395       -2.38646
H          4.73160       -2.88831       -3.07665
H          6.73811       -2.82382       -1.60254
H          6.66092       -1.55665        0.54009
H          4.59653       -0.35595        1.20207
C          1.43253        2.70766       -0.35077
C          3.74451        2.12580       -0.71165
C          3.04945        4.44068       -0.81352
C          4.04685        3.47268       -0.91015
C          1.73993        4.05349       -0.53176
H          0.39915        2.41198       -0.16269
H          0.94257        4.79675       -0.46153
H          3.29084        5.49534       -0.96686
H          5.07364        3.76449       -1.14416
H          4.53749        1.38097       -0.79469
