82
Cat265.ts34.5.log	Energy: -1349863.7528768
C          1.80909        0.97447        2.66686
H          1.36948        1.18062        3.64615
H          2.59228        0.20935        2.66913
C          1.90441        2.03539        1.72779
H          1.49742        3.02031        1.97320
H          2.79126        2.07630        1.08419
H          1.24304        1.43842        0.33109
Rh         0.18752        0.66516        1.27349
C          2.95069       -0.93174       -0.18621
C          1.61926       -2.60516        1.75389
C          0.51260       -2.29870       -0.95388
C         -2.70045        0.36053       -0.72235
C         -2.59638        2.71746        0.90487
C         -0.91968        2.46088       -1.62306
P         -1.47308        1.56693       -0.07211
P          1.25403       -1.29885        0.44923
C         -1.07634        0.26349        2.59722
O         -1.88526        0.04668        3.39689
C          4.13052       -1.57099        0.23061
H          4.09586       -2.38223        0.95823
C          3.09354        0.11499       -1.10685
H          2.20503        0.66730       -1.42177
C          5.37542       -1.19432       -0.25534
H          6.28681       -1.69271        0.08059
C          4.33150        0.49666       -1.61927
H          4.37983        1.31686       -2.33612
C          5.49070       -0.16100       -1.19199
O          6.73650        0.13526       -1.61224
C          6.90565        1.16550       -2.54395
H          6.55495        2.13681       -2.15199
H          7.98200        1.23396       -2.74677
H          6.37756        0.95506       -3.49098
H          2.50919       -2.18777        2.25576
C          0.52694       -2.69263        2.81357
H          0.79820       -3.44742        3.56959
H          0.38987       -1.73027        3.32159
H         -0.44571       -2.98055        2.38759
C          1.97482       -3.98740        1.21162
H          2.73057       -3.95785        0.41364
H          2.36888       -4.62141        2.02281
H          1.08786       -4.49823        0.80750
H          1.18037       -3.15750       -1.13196
C         -0.86596       -2.80007       -0.53820
H         -1.35762       -3.31251       -1.38050
H         -0.81654       -3.50951        0.29983
H         -1.50961       -1.96324       -0.23069
C          0.44005       -1.47682       -2.23231
H          1.43628       -1.26701       -2.64549
H         -0.13885       -2.01791       -2.99783
H         -0.06756       -0.51819       -2.04755
C         -2.79865       -0.02744       -2.06725
H         -2.17746        0.44535       -2.82888
C         -3.52309       -0.30300        0.19716
H         -3.46430       -0.06041        1.26031
C         -3.67119       -1.02839       -2.47212
H         -3.73750       -1.33035       -3.51906
C         -4.40989       -1.30315       -0.19343
H         -5.02425       -1.79011        0.56410
C         -4.48736       -1.67853       -1.53984
O         -5.29990       -2.64066       -2.01883
C         -6.12380       -3.33339       -1.12372
H         -6.83649       -2.66038       -0.61494
H         -6.68866       -4.06412       -1.71633
H         -5.53745       -3.87176       -0.35817
H         -2.84090        2.06085        1.75755
C         -1.81186        3.89419        1.47129
H         -2.40005        4.40557        2.24970
H         -0.86744        3.55138        1.92024
H         -1.58107        4.63952        0.69424
C         -3.91168        3.15125        0.26872
H         -4.43367        2.31569       -0.21951
H         -4.58047        3.55246        1.04784
H         -3.77047        3.94696       -0.47480
H         -0.54824        1.61673       -2.23192
C         -2.01477        3.18316       -2.40388
H         -1.65955        3.41182       -3.42202
H         -2.94197        2.60139       -2.49259
H         -2.26384        4.14264       -1.92799
C          0.26728        3.39123       -1.39800
H          1.10206        2.87934       -0.90243
H          0.62472        3.77528       -2.36691
H         -0.00521        4.25901       -0.77992
