74
Cat256.ts34.5.log	Energy: -1206240.2255335
C         -0.85240       -3.35209       -1.11701
H         -0.74119       -4.22414       -0.46693
H         -1.86751       -3.20998       -1.50237
C          0.24815       -2.99733       -1.95944
H          1.19371       -3.53996       -1.86961
H          0.03827       -2.69479       -2.99211
H          0.33542       -1.37964       -1.77605
Rh         0.05697       -1.65277       -0.20054
C         -1.49286        1.27028       -1.40596
C         -3.37401       -0.80288       -0.81323
C         -2.15041        0.66899        1.34886
C          1.43821        1.10467        1.45703
C          3.37119       -0.86595        0.73725
C          2.22526        0.83063       -1.32469
P          1.76577       -0.15581        0.16176
P         -1.73628       -0.14192       -0.25641
C          0.19353       -2.45263        1.50102
O          0.27508       -2.90822        2.56034
C         -1.28125        2.58774       -0.98007
C         -1.36705        0.98921       -2.77625
C         -0.82449        3.29570       -3.24876
C         -1.04650        1.98859       -3.68838
C         -0.94298        3.58885       -1.89261
H         -1.35851        2.84206        0.07752
H         -0.77400        4.60823       -1.53561
H         -0.56026        4.07979       -3.96214
H         -0.95457        1.74498       -4.74974
H         -1.49361       -0.03848       -3.12882
H         -4.09293        0.02293       -0.94424
H         -3.20743       -1.23837       -1.81311
C         -3.91734       -1.86800        0.13182
H         -4.18085       -1.40285        1.09683
H         -3.11330       -2.58799        0.35866
C         -5.12987       -2.59432       -0.42897
H         -5.95313       -1.89528       -0.64764
H         -4.88156       -3.11506       -1.36794
H         -5.51011       -3.34755        0.27780
H         -2.16768       -0.15182        2.08500
H         -1.26297        1.26327        1.62175
C         -3.42007        1.50639        1.44386
H         -4.30248        0.85560        1.32841
H         -3.46837        2.22126        0.60592
C         -3.51065        2.25756        2.76425
H         -3.49065        1.56280        3.61915
H         -2.65898        2.94631        2.88633
H         -4.43673        2.84863        2.83371
C          1.24307        0.66434        2.77560
C          1.25533        2.46359        1.17430
C          0.69092        2.90770        3.48391
C          0.88056        3.35661        2.17921
C          0.87947        1.55657        3.77933
H          1.34525       -0.39617        3.01850
H          0.72781        1.19131        4.79781
H          0.39549        3.60690        4.26968
H          0.73593        4.41234        1.93581
H          1.38152        2.83668        0.15744
H          4.10192       -0.05451        0.89302
H          3.16777       -1.30895        1.72629
C          3.90653       -1.93356       -0.20613
H          4.11854       -1.48525       -1.19277
H          3.10550       -2.67301       -0.37626
C          5.15687       -2.61836        0.32245
H          5.97524       -1.89796        0.48241
H          4.95936       -3.11296        1.28685
H          5.52067       -3.38623       -0.37724
H          2.28137        0.09684       -2.14505
H          1.33799        1.44314       -1.56056
C          3.49222        1.67498       -1.27393
H          4.37230        1.01290       -1.21807
H          3.51504        2.27722       -0.35073
C          3.61668        2.58848       -2.48450
H          3.62445        2.00884       -3.42139
H          2.76616        3.28694       -2.54202
H          4.54178        3.18383       -2.45070
