68
Cat21.ts34.5.log	Energy: -2591528.6621369
C          0.21348       -4.51862       -0.56844
H          0.96480       -5.06953        0.00189
H         -0.79858       -4.92950       -0.51565
C          0.62458       -3.83042       -1.73621
H          1.68322       -3.81279       -2.00955
H         -0.05450       -3.80470       -2.59572
H          0.16556       -2.29602       -1.60078
Rh         0.38485       -2.42356        0.00950
C         -3.04233       -3.23178        0.64124
O         -2.14860       -1.13507        1.83908
O         -2.57389       -0.97127       -0.74583
C          2.42499        0.23653        1.15289
O          3.31123       -1.34953       -0.87429
O          1.67379        0.41441       -1.42766
P          1.88121       -0.77112       -0.25629
P         -1.80266       -1.92159        0.39586
C          1.02535       -2.85421        1.73044
O          1.40592       -3.11402        2.78407
H         -3.11395       -3.82001       -0.28512
H         -2.68433       -3.88540        1.44900
H         -4.03220       -2.83212        0.90125
C         -1.39695       -0.09668        2.31183
C         -0.58284       -0.30001        3.42630
H         -0.52482       -1.29524        3.86919
C         -1.48269        1.16658        1.72502
H         -2.11984        1.32143        0.85376
C          0.14548        0.75977        3.95821
H          0.79001        0.61212        4.82608
C         -0.75937        2.23006        2.25630
H         -0.82818        3.22023        1.80550
C          0.05649        2.02021        3.36714
Cl         0.98465        3.33642        4.00740
C         -3.87516       -0.57501       -0.82961
C         -4.64084       -0.20016        0.27903
H         -4.21478       -0.25925        1.28041
C         -4.42230       -0.48874       -2.11313
H         -3.80787       -0.78378       -2.96590
C         -5.94603        0.25114        0.09720
H         -6.54957        0.54681        0.95681
C         -5.72236       -0.03137       -2.29474
H         -6.15254        0.04031       -3.29494
C         -6.48327        0.33678       -1.18514
Cl        -8.10431        0.90563       -1.40476
H          2.70706       -0.43229        1.97838
H          3.27217        0.88509        0.88889
H          1.57469        0.84898        1.48501
C          4.45506       -0.60747       -1.00867
C          5.50201       -0.82342       -0.11180
H          5.37325       -1.55823        0.68525
C          4.59779        0.31687       -2.04520
H          3.77065        0.46958       -2.73804
C          6.69123       -0.11259       -0.24137
H          7.51652       -0.27421        0.45378
C          5.78514        1.03121       -2.17576
H          5.91039        1.75655       -2.98133
C          6.82586        0.81583       -1.27291
Cl         8.30260        1.70720       -1.43705
C          0.71669        1.38414       -1.34764
C          1.06550        2.65329       -0.88173
H          2.09492        2.84435       -0.57361
C         -0.58656        1.12480       -1.76972
H         -0.84670        0.12827       -2.12391
C          0.10600        3.65835       -0.81509
H          0.36525        4.65294       -0.44849
C         -1.55222        2.12416       -1.69679
H         -2.58072        1.92520       -2.00337
C         -1.20294        3.38325       -1.21041
Cl        -2.41605        4.61314       -1.06384
