94
Cat250.ts34.5.log	Energy: -1777300.3699851
C          0.64154       -3.48542        0.92805
H          0.72689       -4.25156        0.15394
H          1.54682       -3.34006        1.52416
C         -0.62772       -3.24681        1.51825
H         -1.51751       -3.76429        1.14931
H         -0.67473       -3.00968        2.58653
H         -0.82754       -1.60306        1.45084
Rh        -0.11061       -1.68105        0.00272
C          1.56644        0.48749        2.35921
O          3.12038       -0.83072        0.74937
O          1.69555        1.08134       -0.26795
C         -1.71923        0.47696       -2.29906
O         -3.29798       -0.78153       -0.62018
O         -1.79512        1.07393        0.33485
P         -1.70612       -0.27767       -0.65260
P          1.54003       -0.28286        0.70784
C          0.23829       -2.34208       -1.75322
O          0.45049       -2.73112       -2.81237
C          0.33774        0.90136        2.88740
C          2.74634        0.72535        3.07299
C          1.46992        1.79766        4.82262
C          2.69387        1.37692        4.30262
C          0.29260        1.56065        4.11371
H         -0.57890        0.72499        2.31771
H         -0.66765        1.89051        4.51752
H          1.43375        2.31187        5.78634
H          3.61700        1.56291        4.85695
H          3.70072        0.40283        2.65423
C          3.62396       -1.67009       -0.20390
C          4.38295       -2.76017        0.21995
H          4.53626       -2.91018        1.29043
C          3.41950       -1.45396       -1.56719
H          2.83165       -0.59685       -1.89853
C          4.92527       -3.63155       -0.71892
H          5.51986       -4.48257       -0.37493
C          3.96012       -2.34274       -2.49302
H          3.77997       -2.17065       -3.55748
C          4.71778       -3.44748       -2.09195
C          5.26285       -4.42073       -3.09695
H          6.18554       -4.89919       -2.73732
H          5.48472       -3.92903       -4.05532
H          4.53614       -5.22431       -3.30401
C          2.50554        2.13926        0.06509
C          3.86100        2.11814       -0.25573
H          4.28083        1.24667       -0.76098
C          1.95863        3.24180        0.72168
H          0.90004        3.23173        0.98661
C          4.66252        3.20679        0.08170
H          5.72645        3.18211       -0.17004
C          2.77243        4.32016        1.05092
H          2.33609        5.17647        1.57277
C          4.13791        4.32512        0.73841
C          5.00186        5.50517        1.07836
H          6.06696        5.23330        1.09583
H          4.74111        5.92508        2.06144
H          4.88069        6.31360        0.33786
C         -2.89397        0.69518       -3.02607
C         -0.48719        0.90315       -2.81003
C         -1.60629        1.77009       -4.76536
C         -0.43479        1.55178       -4.04100
C         -2.83258        1.34055       -4.25849
H         -3.84893        0.36052       -2.61830
H         -3.75000        1.51178       -4.82665
H         -1.56362        2.27726       -5.73246
H          0.52662        1.88830       -4.43588
H          0.42313        0.74390       -2.22516
C         -3.72023       -1.68394        0.31820
C         -4.17313       -2.93103       -0.10819
H         -4.17051       -3.15485       -1.17637
C         -3.69046       -1.38000        1.67882
H         -3.31818       -0.40729        2.00527
C         -4.59851       -3.86708        0.82899
H         -4.94676       -4.84520        0.48533
C         -4.11373       -2.33100        2.60492
H         -4.07825       -2.08782        3.67049
C         -4.57555       -3.58847        2.20221
C         -5.05434       -4.60014        3.20284
H         -4.76446       -5.62124        2.91346
H         -6.15393       -4.58618        3.28726
H         -4.64584       -4.40114        4.20389
C         -2.50074        2.19945       -0.01642
C         -3.87381        2.27669        0.20131
H         -4.40023        1.42482        0.63409
C         -1.81919        3.27433       -0.58722
H         -0.74666        3.18507       -0.76743
C         -4.55903        3.43773       -0.15299
H         -5.63785        3.49170        0.01741
C         -2.51774        4.42464       -0.93473
H         -1.97623        5.25963       -1.38812
C         -3.89931        4.52994       -0.72506
C         -4.63790        5.78479       -1.09130
H         -5.72615        5.63111       -1.07537
H         -4.35900        6.13584       -2.09664
H         -4.40801        6.60230       -0.38801
