50
Cat291.ts34.5.log	Energy: -1133533.2744488
C         -3.96028       -1.20818       -0.05164
H         -4.75164       -0.58654       -0.47862
H         -3.85488       -2.18806       -0.52777
C         -3.70825       -1.10161        1.35105
H         -4.24626       -0.35306        1.93941
H         -3.51102       -2.02035        1.91502
H         -2.08583       -0.98661        1.44546
Rh        -2.17994       -0.03987        0.12075
C          0.95962       -1.68365       -0.33526
C         -1.23135       -3.25436       -1.16742
C         -0.42177       -1.08393       -2.78133
C          0.90035        1.62973        0.39217
C         -1.28490        3.12151        1.39507
C         -0.29433        0.94266        2.91953
P         -0.73175        1.38024        1.19597
P         -0.73398       -1.48543       -1.01797
C         -2.78398        1.30662       -1.04949
O         -3.09655        2.14257       -1.78282
C          2.12940       -1.44532       -1.06487
H          2.07694       -1.14682       -2.11291
C          1.07995       -2.04882        1.01364
H          0.17398       -2.21429        1.60460
C          3.38445       -1.56124       -0.47003
H          4.30024       -1.35439       -1.02692
C          2.32508       -2.18484        1.61816
H          2.42782       -2.47227        2.66641
C          3.46597       -1.92967        0.86469
F          4.66298       -2.02419        1.44432
H         -1.36703       -3.68049       -0.16286
H         -2.19480       -3.31123       -1.69557
H         -0.48020       -3.84550       -1.71281
H          0.21309       -1.82604       -3.29035
H         -1.39969       -1.03848       -3.28184
H          0.03787       -0.08861       -2.85578
C          2.12563        1.46414        1.04499
H          2.15987        1.17957        2.09767
C          0.90592        1.97702       -0.96651
H         -0.04339        2.09028       -1.49781
C          3.32960        1.63391        0.36411
H          4.29079        1.48324        0.85881
C          2.09903        2.16387       -1.65619
H          2.11495        2.43681       -2.71308
C          3.29963        1.98127       -0.97853
F          4.44761        2.12565       -1.63963
H         -1.49709        3.54602        0.40369
H         -2.22076        3.12742        1.97263
H         -0.52361        3.73509        1.90056
H          0.21699       -0.02964        2.93315
H          0.33865        1.70370        3.40056
H         -1.23343        0.84421        3.48212
