94
Cat200.ts34.5.log	Energy: -1729730.9285691
C         -0.91238       -2.67990       -2.02376
H         -0.75201       -3.69866       -1.66188
H         -1.94280       -2.45335       -2.31554
C          0.16211       -2.02008       -2.67996
H          1.13411       -2.51388       -2.77464
H         -0.07400       -1.37051       -3.53071
H          0.37327       -0.58058       -1.94113
Rh        -0.07262       -1.32669       -0.56730
O         -2.12980        1.23295       -1.63233
C         -3.53569       -0.78229       -0.78639
C         -2.30150        0.97901        1.09509
O          1.67252       -0.35540        1.99980
C          3.37668       -1.13643       -0.04745
C          2.01079        1.42672       -0.02509
P          1.75309       -0.34727        0.34639
P         -1.95102        0.06547       -0.46051
C         -0.23811       -2.54787        0.86082
O         -0.34620       -3.26630        1.75623
C         -1.07988        2.17091       -1.83374
H         -0.19989        1.85258       -1.24880
C         -1.53015        3.53525       -1.34669
H         -1.74040        3.50995       -0.26830
H         -2.44657        3.84446       -1.87321
H         -0.74470        4.28505       -1.52320
C         -0.71190        2.15441       -3.30356
H         -0.36076        1.15372       -3.59564
H         -1.58750        2.40739       -3.92187
H          0.08612        2.88324       -3.51169
C         -4.25985       -0.56926       -1.95788
H         -3.90784        0.19985       -2.64704
C         -3.98229       -1.75869        0.12535
O         -3.23425       -1.90544        1.23472
C         -3.57953       -2.86843        2.18847
H         -4.56478       -2.65691        2.64006
H         -2.80579       -2.82678        2.96409
H         -3.59072       -3.88384        1.75594
C         -5.41203       -1.30819       -2.23361
H         -5.96893       -1.12917       -3.15610
C         -5.13685       -2.49805       -0.14436
H         -5.48880       -3.25187        0.56038
C         -5.84501       -2.26861       -1.32540
H         -6.74576       -2.85308       -1.52912
C         -1.42204        0.82521        2.16466
H         -0.56452        0.15839        2.04168
C         -3.41604        1.83317        1.24440
O         -4.23968        1.93995        0.18944
C         -5.39226        2.72245        0.28278
H         -6.05938        2.37722        1.09233
H         -5.91543        2.61858       -0.67625
H         -5.15423        3.78855        0.44776
C         -1.61918        1.49953        3.37060
H         -0.91852        1.36043        4.19652
C         -3.61305        2.51780        2.44933
H         -4.46735        3.18363        2.57484
C         -2.71367        2.34710        3.50283
H         -2.88223        2.88809        4.43774
C          2.75913       -0.17350        2.91336
H          3.53043        0.45111        2.43305
C          3.34136       -1.52637        3.28232
H          3.74041       -2.04349        2.39961
H          2.55938       -2.16045        3.72781
H          4.15709       -1.41002        4.01228
C          2.20437        0.55033        4.12492
H          1.80430        1.53771        3.85450
H          1.39200       -0.03968        4.57675
H          2.99059        0.69397        4.88106
C          3.31954       -2.46013       -0.48677
H          2.32694       -2.91846       -0.55676
C          4.63964       -0.51023        0.02529
O          4.67309        0.76076        0.47309
C          5.85753        1.50073        0.40041
H          6.63953        1.09641        1.06702
H          5.60447        2.51930        0.72112
H          6.25082        1.53660       -0.63038
C          4.46678       -3.17025       -0.83818
H          4.39110       -4.20742       -1.17070
C          5.79250       -1.20908       -0.34747
H          6.76940       -0.72736       -0.29873
C          5.70150       -2.53450       -0.77219
H          6.61323       -3.06750       -1.05381
C          1.63220        2.40733        0.88783
H          1.24537        2.09890        1.85978
C          2.45180        1.82270       -1.30255
O          2.74733        0.81880       -2.15231
C          3.17888        1.10844       -3.45044
H          2.41873        1.67436       -4.01607
H          3.34724        0.14310       -3.94391
H          4.12404        1.67956       -3.44885
C          1.71878        3.76380        0.56762
H          1.41143        4.51682        1.29599
C          2.55182        3.17664       -1.62725
H          2.90205        3.48739       -2.61205
C          2.18655        4.14230       -0.68552
H          2.26057        5.20006       -0.94975
