66
Cat208.ts34.5.log	Energy: -1202317.4944780
C          0.62892       -3.64109       -0.09951
H         -0.06160       -4.31280       -0.61574
H          1.62531       -3.56424       -0.54178
C          0.47742       -3.46661        1.30257
H         -0.36017       -3.93761        1.82408
H          1.37706       -3.37496        1.91938
H          0.52619       -1.78781        1.52853
Rh        -0.30498       -1.71399        0.13932
C          2.12436        0.90564        0.07754
O          2.71452       -1.47982       -1.21839
O          1.12194        0.26939       -2.26117
C         -1.70478        1.52023       -0.10755
O         -2.91649       -0.11958        1.56109
O         -0.62545        0.91217        2.18165
P         -1.38994        0.07819        0.97511
P          1.41214       -0.53226       -0.83694
C         -1.76490       -2.26102       -0.93850
O         -2.65776       -2.62376       -1.57156
H          1.21962        1.36406        0.51825
C          2.84464        1.99194       -0.72090
H          2.20830        2.33135       -1.55072
H          3.76100        1.58276       -1.17739
C          3.22198        3.15476        0.19287
H          3.76044        3.92747       -0.37988
H          2.29832        3.63234        0.56762
C          4.06211        2.68802        1.37712
H          4.29753        3.53583        2.04085
H          5.03101        2.30792        1.00442
C          3.36022        1.58170        2.15817
H          2.44532        1.99141        2.62302
H          3.99965        1.22635        2.98272
C          2.97012        0.41650        1.25473
H          3.87935       -0.08158        0.87432
H          2.41505       -0.34658        1.82419
C          3.81537       -1.04009       -1.97873
H          3.51107       -0.32155       -2.75671
H          4.58142       -0.56807       -1.34064
H          4.26239       -1.92062       -2.46322
C          0.41848       -0.37124       -3.29948
H          1.10179       -0.95774       -3.93686
H         -0.35444       -1.04875       -2.89847
H         -0.06204        0.40468       -3.91240
H         -0.69609        1.80307       -0.46293
C         -2.32999        2.71424        0.61416
H         -1.70316        3.00343        1.46969
H         -3.30520        2.40334        1.02557
C         -2.51836        3.88718       -0.34267
H         -2.99813        4.72818        0.18410
H         -1.52639        4.25056       -0.66849
C         -3.33383        3.49115       -1.56832
H         -3.42584        4.34241       -2.26240
H         -4.36094        3.23491       -1.25111
C         -2.71862        2.28978       -2.27740
H         -1.73429        2.57471       -2.69231
H         -3.34180        1.98533       -3.13386
C         -2.53010        1.11184       -1.32793
H         -3.51354        0.74477       -0.98594
H         -2.04448        0.27458       -1.84990
C         -3.36772       -1.34010        2.10180
H         -2.70252       -2.17023        1.80525
H         -3.40623       -1.27874        3.20196
H         -4.38051       -1.53838        1.72162
C         -0.25355        0.27970        3.37799
H         -1.12725        0.12296        4.03338
H          0.22658       -0.69683        3.18575
H          0.46356        0.93228        3.89531
