90
Cat247.ts34.5.log	Energy: -1588551.3022644
C         -0.87948        0.19945       -3.50199
H         -0.59998       -0.59203       -4.20248
H         -1.94777        0.43568       -3.48006
C          0.05831        1.24017       -3.25156
H          1.05990        1.19715       -3.69016
H         -0.31744        2.26490       -3.14995
H          0.08886        1.37326       -1.61930
Rh        -0.01500       -0.24263       -1.58690
C         -1.74611        1.53542        0.89634
C         -3.52786        0.22956       -0.95502
C         -2.29595       -1.29697        1.00878
C          2.06076       -1.60750        0.89814
C          3.42908       -0.04094       -1.06102
C          1.96403        1.26444        0.98376
P          1.81005       -0.14949       -0.18489
P         -1.86636        0.05195       -0.17330
C          0.25123       -2.06200       -2.00694
O          0.41994       -3.17514       -2.25877
C         -1.35807        1.46470        2.23873
C         -1.90519        2.80098        0.31042
C         -1.35717        3.87586        2.40281
C         -1.73231        3.95910        1.06123
C         -1.15679        2.62644        2.98288
H         -1.21630        0.49183        2.71399
H         -0.84128        2.55003        4.02586
H         -1.20963        4.78503        2.99050
H         -1.88156        4.93535        0.59320
H         -2.17566        2.87670       -0.74663
C         -3.82423       -0.66335       -1.99093
H         -3.05991       -1.37204       -2.32213
C         -4.51132        1.13115       -0.53283
H         -4.29708        1.82449        0.28439
C         -5.08365       -0.64865       -2.58548
H         -5.31185       -1.35176       -3.39041
C         -5.77560        1.16530       -1.12953
C         -6.81773        2.14588       -0.67351
H         -7.74877        1.63419       -0.38301
H         -6.46929        2.73066        0.18933
H         -7.07637        2.85430       -1.47708
C         -6.04903        0.26146       -2.16354
H         -7.03273        0.27151       -2.64178
C         -3.27706       -1.12712        1.99744
H         -3.77754       -0.16301        2.11517
C         -1.69255       -2.54317        0.85653
H         -0.93028       -2.66661        0.08489
C         -3.61463       -2.19163        2.82405
H         -4.37370       -2.05903        3.59913
C         -2.03788       -3.63365        1.66773
C         -1.37764       -4.96364        1.45510
H         -1.60200       -5.35789        0.45136
H         -0.28227       -4.87318        1.52492
H         -1.71173       -5.70541        2.19427
C         -2.99973       -3.43569        2.65980
H         -3.28079       -4.26900        3.31010
C          3.03252       -2.57558        0.62426
C          1.19187       -1.80378        1.98020
C          2.28674       -3.88836        2.51370
C          1.31141       -2.92879        2.78978
C          3.13970       -3.71182        1.42616
H          3.71229       -2.44030       -0.21973
H          3.90114       -4.46189        1.19920
H          2.37754       -4.77581        3.14475
H          0.62597       -3.06277        3.62998
H          0.41360       -1.06773        2.19011
C          3.49967       -0.42027       -2.40243
H          2.58407       -0.74045       -2.90809
C          4.59089        0.38693       -0.40580
H          4.53724        0.69485        0.64186
C          4.72390       -0.38404       -3.07081
H          4.77928       -0.68594       -4.11967
C          5.82124        0.43571       -1.06408
C          7.05989        0.90666       -0.35809
H          7.45176        1.82908       -0.81614
H          6.86201        1.11672        0.70217
H          7.86188        0.15366       -0.41177
C          5.87100        0.04028       -2.40879
H          6.82551        0.07169       -2.94239
C          2.45371        1.13609        2.28746
H          2.70879        0.15307        2.68713
C          1.65531        2.53922        0.49751
H          1.25564        2.63762       -0.51546
C          2.62078        2.27107        3.08044
H          2.99418        2.16575        4.10224
C          1.84265        3.68610        1.27024
C          1.55688        5.04773        0.70928
H          2.48995        5.54971        0.40352
H          0.90543        4.98726       -0.17332
H          1.06587        5.69373        1.45211
C          2.32243        3.53273        2.57720
H          2.45908        4.41626        3.20730
