98
Cat276.ts34.5.log	Energy: -1732188.3056434
C         -1.19284       -0.15723       -3.73072
H         -0.74099       -0.86344       -4.43242
H         -2.28092       -0.23342       -3.64139
C         -0.57849        1.11693       -3.56842
H          0.36299        1.34317       -4.07804
H         -1.22516        1.99595       -3.46478
H         -0.49046        1.31769       -1.94465
Rh        -0.12971       -0.25986       -1.87114
C         -2.10767        1.02512        0.70791
C         -3.60667       -0.71084       -1.03540
C         -1.90030       -1.84883        0.85023
C          2.22723       -0.93938        0.61899
C          3.20222        0.73354       -1.47363
C          1.53095        1.85250        0.52487
P          1.65440        0.35387       -0.54127
P         -1.91406       -0.45276       -0.35288
C          0.62615       -1.94204       -2.26403
O          1.09785       -2.97194       -2.48654
C         -2.52983        2.22677        0.11158
H         -2.85453        2.22676       -0.93289
C         -1.67933        1.07208        2.03428
H         -1.35763        0.15546        2.53335
C         -2.53428        3.41636        0.81781
H         -2.87218        4.34695        0.35856
C         -1.64240        2.27142        2.74831
H         -1.27103        2.26708        3.77286
C         -2.06442        3.45365        2.13912
O         -2.03843        4.66882        2.72851
C         -1.58836        4.76068        4.05155
H         -0.54587        4.41258        4.15296
H         -1.64019        5.82120        4.32926
H         -2.22652        4.17968        4.74061
C         -3.73885       -1.69978       -2.01786
H         -2.85004       -2.23754       -2.36016
C         -4.74718       -0.02804       -0.60070
H         -4.65724        0.73531        0.17658
C         -4.99320       -1.99670       -2.54312
H         -5.09313       -2.77591       -3.30289
C         -6.01194       -0.30577       -1.13139
C         -7.22131        0.45855       -0.67446
H         -8.09093       -0.20308       -0.54398
H         -7.03576        0.97250        0.27939
H         -7.50602        1.22625       -1.41325
C         -6.11996       -1.30225       -2.10806
H         -7.10072       -1.53796       -2.53104
C         -2.87967       -1.96750        1.84507
H         -3.65613       -1.20488        1.94489
C         -0.93691       -2.84919        0.71963
H         -0.17764       -2.74698       -0.05751
C         -2.86677       -3.06623        2.69875
H         -3.62872       -3.15890        3.47694
C         -0.91967       -3.96903        1.55921
C          0.12937       -5.03109        1.40179
H         -0.32364       -6.03266        1.33572
H          0.72834       -4.86325        0.49582
H          0.81993       -5.03657        2.26037
C         -1.89641       -4.05855        2.55560
H         -1.90300       -4.92240        3.22691
C          1.52643       -1.17078        1.81350
H          0.69577       -0.51806        2.08834
C          3.26069       -1.81398        0.28075
H          3.81860       -1.66370       -0.64642
C          1.86200       -2.22240        2.64830
H          1.31310       -2.40755        3.57327
C          3.59477       -2.89229        1.10189
H          4.40019       -3.56060        0.79706
C          2.89461       -3.10105        2.29343
O          3.12460       -4.12318        3.14525
C          4.11871       -5.05531        2.82315
H          5.11506       -4.58455        2.75259
H          4.13258       -5.79427        3.63430
H          3.90240       -5.57242        1.87160
C          3.27083        0.42489       -2.83221
H          2.39376       -0.01699       -3.31403
C          4.31421        1.30657       -0.84277
H          4.26187        1.56015        0.21928
C          4.44417        0.67849       -3.54447
H          4.49787        0.43269       -4.60799
C          5.49265        1.56994       -1.54242
C          6.67765        2.19104       -0.86078
H          6.92617        3.16759       -1.30643
H          6.48714        2.34938        0.20980
H          7.57244        1.55564       -0.95601
C          5.54170        1.24495       -2.90645
H          6.45609        1.44463       -3.47296
C          2.14954        1.95131        1.77610
H          2.67428        1.09375        2.20124
C          0.87018        2.97139        0.00701
H          0.37096        2.88851       -0.96213
C          2.10213        3.15262        2.48241
H          2.58626        3.22341        3.46000
C          0.83071        4.18684        0.69332
C          0.13274        5.38483        0.12127
H         -0.34977        5.14818       -0.83675
H         -0.64043        5.74860        0.81567
H          0.84108        6.21122       -0.05048
C          1.45511        4.26050        1.94497
H          1.43197        5.20226        2.50113
