62
Cat266.ts34.5.log	Energy: -1341404.9657718
C         -0.48569       -3.80048        0.89733
H          0.37043       -4.41573        1.18504
H         -1.20768       -3.61194        1.69603
C         -0.92860       -3.85174       -0.45239
H         -0.37216       -4.44137       -1.18622
H         -2.00400       -3.81776       -0.65522
H         -1.09129       -2.23765       -0.91070
Rh         0.23314       -1.98425       -0.00756
C         -2.28627        0.42439        0.76316
O         -1.60362       -1.33650        2.68043
O         -0.09377        0.68568        2.10957
C          2.00971        0.86539       -0.93892
O          1.71900       -0.92049       -2.83184
O         -0.27637        0.57794       -2.10973
P          0.87684       -0.42215       -1.50911
P         -0.89728       -0.57126        1.39708
C          2.01689       -2.37058        0.51455
O          3.09363       -2.61194        0.84673
C         -3.44007       -0.25300        0.33723
H         -3.50286       -1.33892        0.45801
C         -2.22448        1.80629        0.59456
H         -1.33577        2.34089        0.93470
C         -4.49974        0.43245       -0.23235
H         -5.40510       -0.08198       -0.56003
C         -3.27800        2.50930        0.00730
H         -3.19511        3.58962       -0.11453
C         -4.42426        1.82364       -0.40972
O         -5.49321        2.40668       -0.98523
C         -5.47666        3.79104       -1.19486
H         -4.65085        4.09549       -1.86200
H         -6.43094        4.04872       -1.67133
H         -5.38949        4.34932       -0.24607
C         -2.33915       -0.61710        3.64737
H         -1.76753        0.24639        4.02352
H         -3.29448       -0.25095        3.23535
H         -2.54687       -1.30357        4.48006
C          1.23706        0.52597        2.55031
H          1.28070       -0.07092        3.47651
H          1.85787        0.03812        1.78262
H          1.63803        1.52950        2.74662
C          1.54189        2.12608       -0.54425
H          0.48895        2.37231       -0.68738
C          3.36225        0.56515       -0.77001
H          3.74509       -0.40936       -1.08136
C          2.40533        3.05449        0.01534
H          2.05697        4.04159        0.32522
C          4.23950        1.49008       -0.20768
H          5.29006        1.22424       -0.09039
C          3.76091        2.74321        0.19458
O          4.52268        3.70213        0.75495
C          5.88497        3.45069        0.95884
H          6.41416        3.25857        0.00885
H          6.30541        4.35208        1.42243
H          6.04786        2.59268        1.63478
C          1.54027       -2.21253       -3.36537
H          1.26382       -2.92847       -2.57124
H          0.75501       -2.21379       -4.14019
H          2.48942       -2.52326       -3.82467
C         -1.51410        0.11656       -2.59129
H         -1.44908       -0.11160       -3.66838
H         -1.84628       -0.78462       -2.04874
H         -2.25637        0.91100       -2.43167
