90
Cat246.ts34.5.log	Energy: -1588541.7182307
C         -0.70894        1.03828       -3.19106
H         -0.29629        0.49650       -4.04618
H         -1.79559        1.16366       -3.19933
C          0.08162        2.02088       -2.55738
H          1.10491        2.21381       -2.89246
H         -0.42239        2.90209       -2.14191
H          0.10485        1.62528       -0.91992
Rh         0.09302        0.10325       -1.39309
C         -2.18127        1.92450        0.24758
C         -3.50498       -0.31799       -1.03351
C         -2.22847       -0.73984        1.45451
C          1.57292       -0.65850        1.69138
C          3.16508       -1.30092       -0.67297
C          2.96884        1.42155        0.32119
P          1.94116       -0.08627       -0.01624
P         -1.94721        0.14304       -0.14292
C          0.36234       -1.58435       -2.20650
O          0.53627       -2.61277       -2.69429
C         -1.25299        2.56120        1.09099
C         -3.11006        2.71408       -0.43929
C         -2.21840        4.71801        0.58389
C         -3.12492        4.10063       -0.27310
C         -1.28048        3.94000        1.26737
H         -0.47785        1.97136        1.58835
H         -0.55172        4.41237        1.93083
H         -2.23347        5.80264        0.71379
H         -3.85507        4.69969       -0.82287
H         -3.82575        2.24298       -1.11719
C         -3.33804       -0.86691       -2.31111
H         -2.32121       -0.96742       -2.69674
C         -4.80837       -0.21566       -0.48995
C         -5.10539        0.28556        0.89352
H         -4.48026        1.14123        1.17673
H         -4.92143       -0.50278        1.64062
H         -6.15963        0.58607        0.97354
C         -4.42044       -1.29756       -3.07217
H         -4.25604       -1.72498       -4.06384
C         -5.88449       -0.64464       -1.27878
H         -6.89523       -0.56034       -0.86978
C         -5.70517       -1.17839       -2.55178
H         -6.57163       -1.50499       -3.13224
C         -2.29888       -0.06377        2.67877
H         -2.17131        1.01865        2.70862
C         -2.40643       -2.14272        1.43312
C         -2.29087       -2.95632        0.17812
H         -1.50558       -2.56455       -0.48564
H         -3.22764       -2.94596       -0.40090
H         -2.05493       -4.00330        0.41594
C         -2.57488       -0.73626        3.86442
H         -2.62730       -0.17944        4.80284
C         -2.71000       -2.79443        2.63429
H         -2.86553       -3.87709        2.61378
C         -2.80141       -2.10957        3.84166
H         -3.03665       -2.64929        4.76216
C          0.87521       -1.86363        1.85530
C          1.88174        0.10043        2.82655
C          0.88643       -1.57786        4.25250
C          1.52960       -0.35302        4.09772
C          0.56393       -2.33393        3.12617
H          0.56859       -2.43189        0.97341
H          0.03670       -3.28277        3.23671
H          0.61909       -1.93811        5.24853
H          1.77070        0.25556        4.97278
H          2.40400        1.05334        2.71950
C          3.39586       -2.52455       -0.03417
H          2.90399       -2.74110        0.91493
C          3.83101       -1.01818       -1.88872
C          3.63893        0.26868       -2.63231
H          4.09605        1.11801       -2.10035
H          2.56291        0.49254       -2.72646
H          4.08483        0.21237       -3.63465
C          4.26600       -3.46892       -0.56986
H          4.42757       -4.41501       -0.04803
C          4.70503       -1.98155       -2.40529
H          5.22057       -1.76520       -3.34502
C          4.92714       -3.19619       -1.76344
H          5.61315       -3.92720       -2.19787
C          2.38866        2.66674        0.05319
H          1.37682        2.69691       -0.34960
C          4.27668        1.38178        0.86779
C          4.99965        0.12221        1.24970
H          5.39233       -0.40473        0.36692
H          4.34678       -0.58603        1.77608
H          5.84771        0.36015        1.90678
C          3.05889        3.86353        0.28748
H          2.56761        4.81398        0.06719
C          4.93836        2.59870        1.08238
H          5.94829        2.57140        1.50056
C          4.35196        3.82784        0.79667
H          4.90401        4.75253        0.98180
