90
Cat215.ts34.5.log	Energy: -2647781.0602204
C         -0.51952        0.46591       -3.69920
H         -0.34751       -0.34577       -4.41111
H         -1.49327        0.95518       -3.80239
C          0.59438        1.28157       -3.32307
H          1.60059        1.02272       -3.66774
H          0.43991        2.36728       -3.27055
H          0.41402        1.41674       -1.76233
Rh         0.06185       -0.16438       -1.73622
C         -2.09579        1.86184        0.35638
C         -3.45021       -0.40250       -0.89254
C         -1.62216       -0.89575        1.18840
C          2.02970       -1.51300        1.07139
C          3.43326        0.03434       -0.93244
C          1.65119        1.36913        0.86961
P          1.77262       -0.14606       -0.16688
P         -1.79206        0.14825       -0.31303
C         -0.02067       -1.98815       -2.21676
O         -0.15151       -3.08815       -2.53900
H         -1.18099        2.05283        0.94950
C         -3.32119        2.06626        1.24583
H         -3.34537        1.33940        2.07199
H         -4.22983        1.88280        0.64720
C         -3.36275        3.49111        1.79401
H         -4.24979        3.62180        2.43492
H         -2.48154        3.66261        2.43905
C         -3.36416        4.51518        0.66563
H         -3.35477        5.53861        1.07391
H         -4.30222        4.41608        0.08991
C         -2.17641        4.30601       -0.26620
H         -1.24596        4.52847        0.28511
H         -2.21759        5.01391       -1.11002
C         -2.10681        2.87493       -0.79033
H         -2.97698        2.67253       -1.44195
H         -1.20946        2.73630       -1.41247
C         -3.68465       -0.50660       -2.26690
H         -2.86496       -0.29782       -2.95609
C         -4.48720       -0.73659       -0.00916
H         -4.31888       -0.70017        1.06926
C         -4.92687       -0.90064       -2.75886
H         -5.10535       -0.98255       -3.83215
C         -5.73093       -1.13812       -0.48400
H         -6.53625       -1.40119        0.20378
C         -5.94580       -1.20992       -1.86114
Cl        -7.49291       -1.70768       -2.45766
C         -1.36622       -0.40455        2.47245
H         -1.37252        0.66829        2.66370
C         -1.61893       -2.28820        0.99914
H         -1.81810       -2.69768        0.00523
C         -1.06481       -1.26648        3.52847
H         -0.84374       -0.87541        4.52329
C         -1.34048       -3.15878        2.04314
H         -1.33291       -4.23807        1.88344
C         -1.03644       -2.63854        3.30351
Cl        -0.58615       -3.71284        4.58621
H          1.12215       -1.46505        1.70062
C          3.26878       -1.36014        1.95496
H          3.28601       -0.38007        2.45585
H          4.16722       -1.39464        1.31537
C          3.34902       -2.48467        2.98387
H          4.24322       -2.35150        3.61412
H          2.47623       -2.43020        3.65990
C          3.37081       -3.84657        2.30160
H          3.39929       -4.65361        3.05119
H          4.29763       -3.93773        1.70662
C          2.16226       -4.01518        1.39005
H          1.25191       -4.04546        2.01247
H          2.20834       -4.97843        0.85698
C          2.03379       -2.87762        0.38061
H          2.87588       -2.92002       -0.33414
H          1.11515       -3.00319       -0.20762
C          3.66582       -0.60193       -2.15749
H          2.83932       -1.13497       -2.63768
C          4.47797        0.75375       -0.33789
H          4.31673        1.26663        0.61312
C          4.91418       -0.54357       -2.77047
H          5.09593       -1.04334       -3.72328
C          5.72654        0.83423       -0.94717
H          6.53922        1.39979       -0.48842
C          5.93854        0.17883       -2.16014
Cl         7.48984        0.27475       -2.92168
C          1.29582        1.34818        2.22114
H          1.23016        0.40310        2.75918
C          1.74259        2.61607        0.23047
H          2.03438        2.66357       -0.82192
C          0.97586        2.52326        2.90271
H          0.67212        2.49521        3.95062
C          1.44200        3.79569        0.89729
H          1.50255        4.75844        0.38748
C          1.02800        3.73907        2.22988
Cl         0.54625        5.19265        3.03760
