90
Cat296.ts34.5.log	Energy: -1618070.6386802
C          1.90285        1.42067       -2.65727
H          1.59802        2.40089       -3.03256
H          2.85202        1.41848       -2.11258
C          1.54253        0.26523       -3.40879
H          0.89701        0.36465       -4.28531
H          2.26961       -0.54929       -3.49518
H          0.95261       -0.78682       -2.23125
Rh         0.25037        0.52812       -1.60808
C          3.24821       -0.06673        0.20713
O          1.52480        1.39641        1.46878
O          0.95695       -1.12079        1.16758
C         -2.41686       -0.56947        0.40770
O         -2.77283       -0.41832       -2.27547
O         -1.49693       -2.37322       -1.20015
P         -1.57116       -0.73390       -1.20199
P          1.44093        0.21002        0.32178
C         -0.79721        2.09922       -1.80252
O         -1.43534        3.05047       -1.93208
C          3.70438       -1.11919       -0.59833
H          2.98309       -1.76701       -1.10262
C          4.18744        0.76219        0.83091
H          3.83537        1.58208        1.45867
C          5.06450       -1.35414       -0.76925
H          5.43361       -2.17259       -1.38980
C          5.55297        0.54351        0.66307
H          6.29869        1.18030        1.14274
C          5.97302       -0.51383       -0.13415
F          7.27607       -0.72747       -0.29792
C          0.51506        2.37563        1.63094
H         -0.22892        2.26749        0.82340
H          0.00453        2.18674        2.59056
C          1.12728        3.75963        1.60288
H          0.33911        4.48752        1.86480
H          1.88726        3.82913        2.40165
C          1.74606        4.12545        0.26054
H          0.96414        4.08993       -0.51632
H          2.47750        3.34982       -0.02095
C          2.41583        5.48926        0.26174
H          1.69910        6.28925        0.50857
H          3.22788        5.53632        1.00559
H          2.85155        5.72645       -0.72057
C          1.57359       -1.59246        2.35871
H          1.28081       -2.65213        2.43234
H          2.67219       -1.55743        2.25240
C          1.13127       -0.84141        3.60181
H          1.58957       -1.34260        4.47311
H          1.54414        0.17933        3.57355
C         -0.37966       -0.78287        3.76145
H         -0.78145       -1.81024        3.81296
H         -0.81154       -0.34745        2.84681
C         -0.83538        0.01061        4.97383
H         -0.44850       -0.42021        5.91161
H         -0.47948        1.05295        4.92311
H         -1.93294        0.03895        5.04637
C         -2.82708       -1.67306        1.16195
H         -2.60032       -2.67716        0.80141
C         -2.69625        0.72016        0.87626
H         -2.38599        1.59070        0.29433
C         -3.51160       -1.49571        2.36169
H         -3.83275       -2.34312        2.97005
C         -3.37919        0.91192        2.07248
H         -3.60357        1.90977        2.45305
C         -3.77658       -0.20489        2.79964
F         -4.40883       -0.02986        3.95924
C         -4.03960       -1.07001       -2.26133
H         -4.32319       -1.17630       -3.32093
H         -3.93743       -2.08574       -1.84304
C         -5.09918       -0.28142       -1.51284
H         -6.06545       -0.79203       -1.67396
H         -4.90694       -0.33509       -0.42933
C         -5.19988        1.17602       -1.93823
H         -5.46134        1.22944       -3.01000
H         -4.20388        1.64008       -1.85428
C         -6.20711        1.96134       -1.11511
H         -7.22036        1.53598       -1.20058
H         -5.93661        1.95000       -0.04648
H         -6.25949        3.01320       -1.43430
C         -0.69064       -3.10184       -2.11263
H         -1.30825       -3.94449       -2.46541
H         -0.44460       -2.47813       -2.98936
C          0.57465       -3.59857       -1.44705
H          1.14495       -4.18276       -2.19135
H          1.18608       -2.72013       -1.18773
C          0.34686       -4.42053       -0.18846
H         -0.31206       -5.27786       -0.41552
H         -0.19654       -3.79436        0.53744
C          1.64675       -4.91435        0.42553
H          2.19000       -5.58162       -0.26321
H          2.31689       -4.07222        0.66177
H          1.47179       -5.47240        1.35798
