98
Cat275.ts34.5.log	Energy: -1732178.6847121
C          0.77675       -0.60123       -3.76283
H          1.86778       -0.66663       -3.73057
H          0.28586       -1.43187       -4.27651
C          0.13331        0.65812       -3.76712
H          0.74818        1.56355       -3.80274
H         -0.82803        0.77692       -4.27479
H         -0.12116        1.16736       -2.17604
Rh        -0.11523       -0.41814       -1.80393
C         -1.60640        1.59310        0.60097
C         -3.50310        0.59827       -1.27799
C         -2.50147       -1.22578        0.70725
C          1.64186       -1.02461        1.18624
C          3.29066       -1.00586       -1.21457
C          2.53334        1.47346        0.05343
P          1.84208       -0.17219       -0.43581
P         -1.92933        0.11146       -0.43612
C         -0.36867       -2.27495       -1.80756
O         -0.47947       -3.42308       -1.83370
C         -2.13429        2.84594        0.24696
H         -2.85905        2.92140       -0.56659
C         -0.66536        1.55730        1.63323
H         -0.17428        0.62108        1.89331
C         -1.73762        4.00220        0.90310
H         -2.13649        4.97753        0.61745
C         -0.27927        2.70489        2.31969
H          0.47151        2.61951        3.10523
C         -0.80168        3.94519        1.94476
O         -0.44552        5.12025        2.49894
C          0.54823        5.11930        3.48702
H          1.49839        4.70420        3.10721
H          0.70446        6.16625        3.77655
H          0.23948        4.54642        4.37926
C         -3.45243        0.68911       -2.67187
H         -2.50277        0.44750       -3.15511
C         -4.71778        0.86517       -0.60457
C         -4.88270        0.76961        0.88417
H         -4.03194        1.20629        1.42428
H         -4.95748       -0.28053        1.20731
H         -5.79779        1.28788        1.20305
C         -4.56951        1.04314       -3.42249
H         -4.50286        1.10529       -4.51113
C         -5.83013        1.21998       -1.37912
H         -6.77416        1.43153       -0.86918
C         -5.76790        1.30997       -2.76748
H         -6.65941        1.58898       -3.33469
C         -2.27251       -1.15593        2.08674
H         -1.82354       -0.26363        2.51866
C         -3.13859       -2.37275        0.17618
C         -3.54781       -2.50271       -1.26246
H         -2.84731       -2.00927       -1.94841
H         -4.53109       -2.03186       -1.42504
H         -3.62349       -3.56065       -1.54894
C         -2.62695       -2.19429        2.94112
H         -2.43154       -2.10009        4.01208
C         -3.46937       -3.41430        1.05297
H         -3.95235       -4.30444        0.64043
C         -3.21901       -3.34043        2.41963
H         -3.49887       -4.17093        3.07289
C          1.94383       -0.42707        2.42116
H          2.39956        0.56481        2.44853
C          1.02829       -2.28282        1.21469
H          0.73871       -2.76810        0.28317
C          1.63536       -1.05396        3.62100
H          1.85365       -0.57818        4.57909
C          0.74107       -2.93754        2.40796
H          0.24709       -3.90796        2.36889
C          1.02863       -2.31654        3.62744
O          0.74328       -2.84334        4.83423
C          0.18025       -4.12566        4.89032
H          0.84410       -4.88316        4.43783
H          0.04307       -4.36228        5.95308
H         -0.79936       -4.16631        4.38344
C          3.66267       -2.29882       -0.82357
H          3.15384       -2.77400        0.01676
C          3.96768       -0.39218       -2.29391
C          3.66544        1.00372       -2.75961
H          4.19500        1.75350       -2.14985
H          2.59673        1.24271       -2.67711
H          3.97472        1.13974       -3.80570
C          4.68296       -2.98755       -1.47098
H          4.95258       -3.99357       -1.14085
C          4.99174       -1.10476       -2.93060
H          5.51572       -0.63000       -3.76519
C          5.35418       -2.38789       -2.53354
H          6.15579       -2.91688       -3.05429
C          1.72104        2.57762       -0.22948
H          0.74935        2.39878       -0.69721
C          3.80303        1.68081        0.64490
C          4.78342        0.57975        0.93350
H          5.34355        0.30647        0.02488
H          4.29915       -0.33931        1.28502
H          5.51065        0.90281        1.69204
C          2.11977        3.87719        0.06748
H          1.45610        4.71557       -0.15499
C          4.18206        2.99700        0.94340
H          5.15938        3.16616        1.40435
C          3.36033        4.08609        0.66205
H          3.69586        5.09785        0.90441
