110
Cat284.ts34.5.log	Energy: -1830790.3755341
C          0.09227        1.85797        3.32221
H         -0.17225        1.48698        4.31589
H          1.16070        2.05317        3.18203
C         -0.84038        2.69801        2.64332
H         -1.81802        2.87906        3.09707
H         -0.46057        3.56892        2.09647
H         -0.88798        2.09344        1.13240
Rh        -0.83610        0.62972        1.83177
C          2.37121        1.50901        0.37690
C          2.35978       -0.55668        2.37758
C          1.48799       -1.12282       -0.47267
C         -1.92092       -1.35032       -0.81339
C         -3.98675       -0.73275        1.04802
C         -3.16880        1.29259       -0.83669
P         -2.43474        0.01209        0.30694
P          1.31864        0.11340        0.93788
C         -1.33752       -0.72448        3.04134
O         -1.66529       -1.56770        3.76221
C          1.78527        2.75334        0.10486
H          0.70672        2.87155        0.23194
C          3.74808        1.37328        0.16443
H          4.23675        0.41295        0.33665
C          2.54212        3.81987       -0.35613
H          2.08300        4.78510       -0.57498
C          4.52235        2.43421       -0.29945
H          5.58832        2.27862       -0.46584
C          3.91888        3.66946       -0.56512
O          4.57671        4.75275       -1.02382
C          5.95054        4.65195       -1.27155
H          6.17520        3.88815       -2.03705
H          6.27703        5.63220       -1.64165
H          6.51758        4.41055       -0.35505
H          2.98051        0.29476        2.69004
H          1.61706       -0.71285        3.17178
C          3.20889       -1.77719        2.21372
C          4.59869       -1.66298        2.09202
H          5.05138       -0.66886        2.12776
C          2.62780       -3.06429        2.21835
C          1.15940       -3.24588        2.46788
H          0.54246       -2.55181        1.88032
H          0.91085       -3.04859        3.52375
H          0.83913       -4.27210        2.23893
C          5.41129       -2.78106        1.92734
H          6.49245       -2.66085        1.82721
C          3.45492       -4.17819        2.03891
H          3.00325       -5.17430        2.03246
C          4.83425       -4.04748        1.88489
H          5.45560       -4.93538        1.74639
H          1.35173       -2.10947       -0.01130
H          0.58405       -0.94146       -1.06823
C          2.70605       -1.12358       -1.34472
C          3.76043       -2.00529       -1.08083
H          3.66613       -2.71152       -0.25519
C          2.80479       -0.25626       -2.45469
C          1.66417        0.63303       -2.84637
H          1.38024        1.31696       -2.03446
H          0.77035        0.03676       -3.09446
H          1.92116        1.24071       -3.72517
C          4.92410       -1.99796       -1.84486
H          5.73354       -2.69144       -1.60413
C          3.97987       -0.26053       -3.21239
H          4.05647        0.41953       -4.06552
C          5.04275       -1.10816       -2.90917
H          5.95144       -1.08590       -3.51596
C         -1.84359       -1.27703       -2.20975
H         -2.18615       -0.38702       -2.73940
C         -1.49167       -2.53392       -0.20195
H         -1.52741       -2.62124        0.88721
C         -1.32147       -2.32394       -2.95876
H         -1.24176       -2.25846       -4.04540
C         -0.98539       -3.60068       -0.93677
H         -0.65470       -4.49807       -0.41341
C         -0.87342       -3.49216       -2.32974
O         -0.35905       -4.44437       -3.12669
C          0.21648       -5.57848       -2.53823
H         -0.52721       -6.17759       -1.98378
H          0.61983       -6.18670       -3.35738
H          1.04013       -5.30704       -1.85467
H         -3.65949       -1.69278        1.47615
H         -4.23477       -0.08820        1.90134
C         -5.14130       -0.91290        0.10898
C         -5.10682       -1.93605       -0.84888
H         -4.25598       -2.61991       -0.86313
C         -6.25850       -0.05015        0.14811
C         -6.39826        1.01815        1.19721
H         -5.56492        1.73721        1.18842
H         -6.42894        0.58535        2.21036
H         -7.32615        1.58808        1.05194
C         -6.12943       -2.09498       -1.77893
H         -6.07410       -2.89932       -2.51624
C         -7.27721       -0.22462       -0.79567
H         -8.14214        0.44391       -0.76542
C         -7.21861       -1.22771       -1.75917
H         -8.02863       -1.33767       -2.48407
H         -3.47439        0.78618       -1.76303
H         -4.10636        1.59495       -0.35500
C         -2.31361        2.48996       -1.12148
C         -1.36391        2.45461       -2.14766
H         -1.24457        1.54045       -2.73226
C         -2.45484        3.67030       -0.36165
C         -3.47679        3.77450        0.73280
H         -3.39564        2.93508        1.43960
H         -4.50175        3.76914        0.32507
H         -3.35279        4.70687        1.30017
C         -0.56346        3.55511       -2.43869
H          0.17306        3.49722       -3.24275
C         -1.63801        4.76669       -0.66045
H         -1.74877        5.68143       -0.07145
C         -0.70194        4.72053       -1.69034
H         -0.08221        5.59384       -1.90692
