78
Cat244.ts34.5.log	Energy: -2643232.1168898
C         -0.57600       -2.79070       -2.22302
H         -0.36216       -3.81630       -1.91082
H         -1.60536       -2.61662       -2.55093
C          0.46947       -2.03527       -2.82005
H          1.47925       -2.45043       -2.89183
H          0.22019       -1.37423       -3.65780
H          0.45056       -0.59599       -2.02664
Rh         0.12314       -1.45132       -0.69083
C         -1.50903        1.66098       -1.03747
C         -3.31593       -0.57210       -1.23934
C         -2.42283        0.20119        1.26654
C          1.96793       -0.30391        2.07390
C          3.54137       -0.98110       -0.21506
C          2.10138        1.46352       -0.18765
P          1.88922       -0.31058        0.24335
P         -1.74246       -0.05307       -0.42846
C          0.15555       -2.81124        0.61764
O          0.18627       -3.64067        1.41712
C         -1.23857        2.73261       -0.17813
C         -1.46683        1.88483       -2.42238
C         -0.96922        4.22193       -2.06370
C         -1.21789        3.15666       -2.92989
C         -0.96542        4.00077       -0.68881
H         -1.24305        2.57952        0.90328
H         -0.74201        4.82238       -0.00443
H         -0.75150        5.21666       -2.45880
H         -1.20753        3.31522       -4.01120
H         -1.63710        1.05229       -3.11115
C         -4.19262        0.28274       -1.91639
H         -3.94603        1.33956       -2.03870
C         -3.67473       -1.91873       -1.08931
H         -2.99707       -2.59494       -0.55994
C         -5.39243       -0.19296       -2.44053
H         -6.07412        0.47443       -2.97048
C         -4.87484       -2.40434       -1.59652
H         -5.15264       -3.45238       -1.47388
C         -5.72741       -1.53564       -2.27768
Cl        -7.21721       -2.13187       -2.92782
C         -3.45685        1.11679        1.51324
H         -3.85477        1.72542        0.69743
C         -1.95672       -0.58368        2.32179
H         -1.15731       -1.30319        2.13924
C         -3.98967        1.26583        2.78745
H         -4.78916        1.98244        2.98220
C         -2.48716       -0.45408        3.60422
H         -2.11313       -1.06629        4.42614
C         -3.49550        0.47769        3.83012
Cl        -4.14822        0.66567        5.42263
C          2.88122       -1.09193        2.78194
C          1.01494        0.43875        2.78458
C          1.90059       -0.38064        4.87516
C          0.98692        0.40841        4.17530
C          2.84267       -1.13163        4.17559
H          3.62710       -1.68029        2.24346
H          3.55823       -1.75507        4.71683
H          1.87490       -0.41162        5.96694
H          0.23726        0.99381        4.71307
H          0.28402        1.04312        2.24278
C          4.70691       -0.20830       -0.13985
H          4.65148        0.83725        0.17230
C          3.63812       -2.31309       -0.62882
H          2.72196       -2.90741       -0.69891
C          5.94406       -0.75384       -0.46586
H          6.85359       -0.15328       -0.41300
C          4.87108       -2.87526       -0.94975
H          4.94819       -3.91575       -1.26929
C          6.01845       -2.08838       -0.86751
Cl         7.55534       -2.77097       -1.27596
C          2.46322        2.44938        0.73685
H          2.62232        2.18767        1.78464
C          1.92683        1.83159       -1.52706
H          1.63232        1.07615       -2.25924
C          2.61548        3.77740        0.34243
H          2.87713        4.54922        1.06808
C          2.09991        3.14568       -1.93863
H          1.95180        3.42923       -2.98086
C          2.42508        4.11739       -0.99364
Cl         2.54894        5.77335       -1.48590
