90
Cat261.ts34.5.log	Energy: -1837525.4492482
C         -0.15710        3.19441       -2.53456
H          0.16519        3.21169       -3.57889
H         -1.20370        3.47636       -2.38377
C          0.79516        3.52200       -1.52900
H          1.83743        3.70397       -1.80397
H          0.47433        4.11804       -0.66731
H          0.59602        2.33446       -0.39985
Rh         0.43681        1.32885       -1.65478
C         -1.71884        0.75693        1.09350
C         -3.07080        1.59075       -1.35725
C         -2.06848       -1.15511       -1.13988
C          1.76449       -1.74783       -0.42217
C          3.70438        0.07408       -1.36765
C          2.38784        0.54435        1.20150
P          2.00979        0.07229       -0.55663
P         -1.59719        0.61771       -0.72888
C          0.65476        0.49855       -3.33399
O          0.78096       -0.01228       -4.36250
C         -1.17168       -0.24077        1.91605
C         -2.18862        1.92837        1.70460
C         -1.65061        1.06280        3.89761
C         -2.16181        2.07794        3.09019
C         -1.14677       -0.09293        3.30077
H         -0.76167       -1.14979        1.47402
H         -0.72993       -0.89259        3.91788
H         -1.63391        1.17652        4.98372
H         -2.54080        2.99875        3.54075
H         -2.56535        2.75267        1.09594
H         -2.93084        2.61811       -0.98864
H         -2.88444        1.64009       -2.44092
C         -4.45343        1.08703       -1.08702
C         -5.09311        0.25487       -2.01767
H         -4.59467        0.02273       -2.96269
C         -5.14522        1.39864        0.09280
H         -4.68480        2.04977        0.83636
C         -6.35507       -0.28025       -1.77388
H         -6.84960       -0.93253       -2.49560
C         -6.41005        0.87772        0.35116
H         -6.94800        1.11680        1.27022
C         -6.99798        0.03412       -0.58374
F         -8.20538       -0.47133       -0.33899
H         -2.80450       -1.05785       -1.95375
H         -1.16433       -1.58381       -1.58973
C         -2.57922       -2.08222       -0.07531
C         -1.81196       -3.19599        0.28755
H         -0.86339       -3.38140       -0.21948
C         -3.78842       -1.86860        0.59777
H         -4.40545       -1.00709        0.34636
C         -2.22163       -4.06593        1.29498
H         -1.61946       -4.93023        1.58107
C         -4.21566       -2.72959        1.60335
H         -5.15618       -2.56258        2.13137
C         -3.42278       -3.81824        1.94528
F         -3.82351       -4.64037        2.91630
C          1.41820       -2.43868       -1.59357
C          1.98573       -2.48431        0.74699
C          1.55805       -4.55268       -0.43155
C          1.87458       -3.87527        0.74342
C          1.32878       -3.82838       -1.60272
H          1.22980       -1.88285       -2.51512
H          1.06847       -4.34781       -2.52797
H          1.48227       -5.64246       -0.43521
H          2.05278       -4.43230        1.66626
H          2.26857       -1.98337        1.67376
H          3.50391       -0.22649       -2.40725
H          4.00662        1.13142       -1.40654
C          4.74357       -0.79606       -0.73272
C          5.61941       -0.30096        0.24308
H          5.59084        0.75735        0.51230
C          4.83999       -2.15523       -1.06690
H          4.17739       -2.56940       -1.82957
C          6.54571       -1.12509        0.87847
H          7.23044       -0.73893        1.63553
C          5.75827       -2.99349       -0.44405
H          5.83181       -4.05109       -0.70312
C          6.59874       -2.46781        0.52953
F          7.47864       -3.26567        1.13353
H          1.59104        0.08724        1.80585
H          3.34227        0.07625        1.49131
C          2.39470        2.02313        1.44521
C          3.43881        2.84857        1.01106
H          4.30339        2.41541        0.50516
C          1.30534        2.62432        2.08726
H          0.47832        2.00321        2.43343
C          3.40170        4.22742        1.20287
H          4.21335        4.87429        0.86537
C          1.24990        4.00055        2.28848
H          0.39972        4.46685        2.78954
C          2.30153        4.78850        1.83909
F          2.25708        6.10768        2.02329
