114
Cat226.ts34.5.log	Energy: -1691693.0558243
C          0.57211        0.34804       -3.81035
H          0.61836        1.29453       -4.35613
H          1.47873       -0.25854       -3.89797
C         -0.69177       -0.31872       -3.73292
H         -1.58158        0.17295       -4.13729
H         -0.71647       -1.40637       -3.87114
H         -0.78014       -0.77421       -2.17516
Rh        -0.16065        0.68234       -1.82976
C          2.26471       -1.89772       -0.73207
C          3.26961        0.75863       -1.51945
C          1.85957        0.33846        1.14317
C         -1.79509        2.45022        0.66821
C         -3.52130        0.70914       -1.11248
C         -2.03660       -0.38699        1.14313
P         -1.86003        0.81679       -0.26296
P          1.79167       -0.08592       -0.69696
C          0.04597        2.54136       -2.04346
O          0.19576        3.66977       -2.24758
H          1.65365       -2.32034        0.08434
C          3.72372       -2.25867       -0.44982
H          4.09185       -1.76536        0.45858
H          4.34618       -1.89781       -1.28706
C          3.89711       -3.77079       -0.33825
H          4.95328       -4.01310       -0.13666
H          3.32574       -4.13092        0.53612
C          3.41630       -4.48107       -1.59779
H          3.49976       -5.57427       -1.48416
H          4.07651       -4.20565       -2.44049
C          1.98321       -4.09000       -1.94026
H          1.30699       -4.47873       -1.15748
H          1.66906       -4.56084       -2.88638
C          1.81040       -2.57618       -2.02509
H          2.40458       -2.18640       -2.87225
H          0.76283       -2.31725       -2.24022
H          3.68487       -0.00196       -2.19761
H          2.80221        1.51669       -2.16163
C          4.36459        1.37344       -0.70112
C          5.57932        0.70315       -0.51617
H          5.71823       -0.27660       -0.97639
C          4.20122        2.65608       -0.13122
C          2.96665        3.47114       -0.38334
H          2.03893        2.90851       -0.20530
H          2.91661        3.80337       -1.43290
H          2.94763        4.36915        0.24926
C          6.60707        1.24903        0.24696
H          7.54089        0.69749        0.37820
C          5.23864        3.18645        0.64416
H          5.10630        4.17450        1.09363
C          6.43116        2.49414        0.84455
H          7.22282        2.93361        1.45588
H          2.12637        1.40408        1.17557
H          0.80624        0.28450        1.44932
C          2.73401       -0.43760        2.08669
C          4.03276        0.01602        2.35028
H          4.36383        0.95525        1.90709
C          2.28539       -1.61713        2.72217
C          0.86050       -2.08496        2.63903
H          0.45624       -2.10205        1.61873
H          0.19916       -1.42900        3.23070
H          0.75400       -3.10004        3.04545
C          4.91203       -0.70718        3.14920
H          5.92266       -0.32886        3.31941
C          3.18734       -2.33920        3.51299
H          2.84335       -3.26140        3.98980
C          4.49522       -1.90793        3.71717
H          5.17615       -2.49786        4.33537
H         -0.70662        2.64011        0.64420
C         -2.21630        2.49435        2.13848
H         -1.70078        1.71346        2.71670
H         -3.29657        2.29192        2.23563
C         -1.89385        3.85872        2.74658
H         -2.22655        3.88793        3.79690
H         -0.79637        3.98691        2.76548
C         -2.51572        5.00390        1.95651
H         -2.22669        5.97265        2.39516
H         -3.61669        4.94390        2.03674
C         -2.11994        4.94128        0.48613
H         -1.03443        5.11626        0.38176
H         -2.61884        5.74144       -0.08384
C         -2.46084        3.58325       -0.11640
H         -3.55647        3.45104       -0.09532
H         -2.16423        3.55235       -1.17501
H         -3.65246        1.69782       -1.57982
H         -3.32394        0.02218       -1.94358
C         -4.75524        0.29877       -0.36156
C         -5.33564        1.16296        0.57564
H         -4.87069        2.13382        0.75711
C         -5.37803       -0.94344       -0.61671
C         -4.84012       -1.90618       -1.63520
H         -3.80156       -2.19625       -1.41674
H         -4.85494       -1.47152       -2.64811
H         -5.44247       -2.82402       -1.65797
C         -6.49655        0.82676        1.26675
H         -6.92447        1.52571        1.98916
C         -6.54397       -1.26747        0.08754
H         -7.02292       -2.23027       -0.11009
C         -7.10499       -0.40160        1.02221
H         -8.01584       -0.68542        1.55455
H         -1.10767       -0.28934        1.72826
H         -2.84179        0.00106        1.77751
C         -2.29434       -1.83527        0.82944
C         -1.50987       -2.51747       -0.10720
H         -0.72375       -1.96456       -0.62423
C         -3.30224       -2.54235        1.52094
C         -4.12526       -1.89615        2.59690
H         -4.67075       -1.01580        2.22610
H         -3.49487       -1.56345        3.43778
H         -4.86816       -2.60019        2.99515
C         -1.72912       -3.85999       -0.40621
H         -1.10625       -4.35996       -1.15167
C         -3.51416       -3.88883        1.20349
H         -4.30225       -4.43294        1.73126
C         -2.74734       -4.54877        0.24614
H         -2.94051       -5.60016        0.02006
