82
Cat285.ts34.5.log	Energy: -1349875.7822459
C         -3.59294       -0.25160       -1.86638
H         -4.54145       -0.00102       -1.38363
H         -3.37844        0.34171       -2.76151
C         -3.16633       -1.61763       -1.84140
H         -3.74077       -2.35176       -1.26890
H         -2.73718       -2.04670       -2.75453
H         -1.58611       -1.49209       -1.46471
Rh        -2.04264       -0.35077       -0.40409
C          1.04955        0.36065       -1.91938
C         -1.03412        2.10728       -2.83430
C          0.08983        2.48312       -0.20015
C          0.46363       -0.28347        2.02870
C         -1.39345       -2.42927        2.38582
C          0.56363       -2.56614        0.24177
P         -0.61248       -1.40842        1.05953
P         -0.49889        1.15542       -1.33882
C         -3.05379        0.48088        0.95101
O         -3.63985        1.00552        1.79925
C          0.95244       -0.62408       -2.92070
H         -0.01316       -0.81153       -3.39915
C          2.29305        0.53638       -1.31037
H          2.41966        1.27904       -0.52231
C          2.03972       -1.39854       -3.28492
H          1.95914       -2.16792       -4.05518
C          3.39767       -0.25087       -1.65158
H          4.34404       -0.08703       -1.13495
C          3.27481       -1.23169       -2.63796
O          4.26766       -2.05940       -3.02272
C          5.51072       -1.95646       -2.38872
H          5.43507       -2.15047       -1.30357
H          6.15954       -2.71792       -2.83973
H          5.96912       -0.96294       -2.53908
H         -0.17857        2.65895       -3.25848
H         -1.33113        1.35725       -3.58736
C         -2.20440        3.03776       -2.53883
H         -1.86795        3.84936       -1.87152
H         -2.96753        2.48173       -1.96884
C         -2.81899        3.63564       -3.79466
H         -2.07699        4.21009       -4.37240
H         -3.21389        2.84814       -4.45676
H         -3.65144        4.31379       -3.55228
H         -0.82549        2.87561        0.27308
H          0.61581        1.95875        0.61302
C          0.94160        3.62156       -0.74830
H          0.34219        4.23543       -1.44080
H          1.77263        3.22201       -1.35237
C          1.49420        4.50109        0.36520
H          0.67901        4.93807        0.96478
H          2.12949        3.92059        1.05414
H          2.09836        5.33107       -0.03241
C          1.85043       -0.18857        1.84211
H          2.36655       -0.88430        1.18008
C         -0.14183        0.64889        2.88000
H         -1.22378        0.62831        3.03191
C          2.59275        0.81398        2.45257
H          3.66936        0.89964        2.29181
C          0.58999        1.65379        3.50759
H          0.07088        2.36770        4.14717
C          1.96772        1.75571        3.27834
O          2.75690        2.72139        3.78967
C          2.17327        3.71850        4.58207
H          1.71091        3.30107        5.49366
H          2.98142        4.40033        4.87524
H          1.40964        4.28824        4.02373
H         -0.60904       -2.86877        3.02486
H         -1.96054       -1.72232        3.01432
C         -2.33007       -3.49208        1.82970
H         -1.75656       -4.20618        1.21275
H         -3.03736       -2.99877        1.14134
C         -3.08391       -4.24532        2.91417
H         -2.39442       -4.75960        3.60303
H         -3.70096       -3.55929        3.51619
H         -3.75410       -5.00537        2.48425
H         -0.05375       -3.15022       -0.45966
H          1.19423       -1.93373       -0.40550
C          1.40916       -3.49063        1.10806
H          0.75880       -4.23381        1.59884
H          1.88191       -2.92436        1.92742
C          2.47804       -4.20557        0.29377
H          2.02794       -4.81028       -0.50952
H          3.15598       -3.48388       -0.19082
H          3.08620       -4.87686        0.91909
