94
Cat242.ts34.5.log	Energy: -1777214.3337557
C         -0.53170       -3.34546       -1.21359
H         -0.31726       -4.21469       -0.58600
H         -1.55611       -3.29648       -1.59543
C          0.52021       -2.81206       -2.00971
H          1.53326       -3.21869       -1.93149
H          0.27996       -2.46357       -3.02083
H          0.47345       -1.19988       -1.72782
Rh         0.14021       -1.58055       -0.18842
C         -1.48731        1.23989       -1.54165
C         -3.28758       -0.94664       -1.05913
C         -2.43397        0.60337        1.09386
C          1.94856        0.44573        2.04540
C          3.54859       -0.97724        0.15110
C          2.12882        1.33885       -0.67456
P          1.90195       -0.18278        0.32335
P         -1.73919       -0.18653       -0.41494
C          0.16956       -2.43046        1.49317
O          0.19717       -2.94900        2.52347
C         -1.22958        2.53069       -1.06597
C         -1.42291        1.01124       -2.92490
C         -0.91800        3.34025       -3.32301
C         -1.15901        2.05410       -3.80751
C         -0.94152        3.56962       -1.94986
H         -1.25886        2.72911        0.00761
H         -0.73180        4.56751       -1.55716
H         -0.68783        4.15534       -4.01281
H         -1.12853        1.85886       -4.88248
H         -1.58782        0.00209       -3.31333
C         -4.16520       -0.34862       -1.97585
H         -3.92253        0.62262       -2.41281
C         -3.64873       -2.18329       -0.51619
H         -2.97833       -2.66073        0.20457
C         -5.35005       -0.97142       -2.34109
H         -6.03483       -0.51231       -3.05691
C         -4.84107       -2.81522       -0.86412
H         -5.08476       -3.77751       -0.41323
C         -5.70026       -2.21094       -1.78910
O         -6.86899       -2.74076       -2.20285
C         -7.27184       -3.97455       -1.67967
H         -7.40355       -3.93398       -0.58380
H         -8.23722       -4.21384       -2.14365
H         -6.55275       -4.77799       -1.91922
C         -1.95555        0.24471        2.35878
H         -1.13098       -0.46604        2.43284
C         -3.49817        1.50955        1.02315
H         -3.90817        1.79172        0.04993
C         -2.50633        0.78245        3.51388
H         -2.12951        0.50704        4.50050
C         -4.05683        2.06482        2.17066
H         -4.88253        2.77028        2.07419
C         -3.55852        1.70147        3.43034
O         -4.02922        2.18203        4.59827
C         -5.09324        3.09069        4.57663
H         -5.99764        2.65492        4.11638
H         -5.31426        3.34201        5.62184
H         -4.83296        4.01762        4.03517
C          2.83483       -0.06927        2.99714
C          1.00111        1.39816        2.44451
C          1.83895        1.32090        4.70727
C          0.95167        1.83906        3.76321
C          2.77591        0.36467        4.32133
H          3.57573       -0.81508        2.70123
H          3.47089       -0.04946        5.05587
H          1.79573        1.66013        5.74506
H          0.20336        2.57906        4.05670
H          0.29059        1.79257        1.71477
C          4.73042       -0.23105        0.01329
H          4.68262        0.85986       -0.02868
C          3.64302       -2.36837        0.18513
H          2.72048       -2.94936        0.28060
C          5.96052       -0.86049       -0.07910
H          6.88502       -0.29081       -0.19139
C          4.87557       -3.01678        0.09963
H          4.90859       -4.10604        0.13218
C          6.04516       -2.26120       -0.03463
O          7.28209       -2.78415       -0.13340
C          7.43178       -4.17572       -0.09742
H          6.90207       -4.66763       -0.93227
H          8.50609       -4.37941       -0.19015
H          7.06820       -4.60374        0.85345
C          1.96242        1.24474       -2.06529
H          1.65049        0.29438       -2.50477
C          2.51290        2.57008       -0.14130
H          2.66642        2.67561        0.93452
C          2.17000        2.33646       -2.88707
H          2.02979        2.26853       -3.96667
C          2.70195        3.68819       -0.95668
H          2.98549        4.63622       -0.49888
C          2.52399        3.57659       -2.33789
O          2.65220        4.59700       -3.21012
C          2.98379        5.86410       -2.71809
H          3.96687        5.86663       -2.21481
H          3.02771        6.53777       -3.58335
H          2.22442        6.24140       -2.00996
