102
Cat218.ts34.5.log	Energy: -1593100.1274476
C          0.51330        0.99085        3.55787
H          0.36182        0.28786        4.38143
H          1.47423        1.51440        3.58707
C         -0.62221        1.71708        3.07251
H         -1.62206        1.48592        3.45395
H         -0.49455        2.78863        2.86843
H         -0.44400        1.63387        1.51438
Rh        -0.05628        0.07216        1.71181
C          2.05607        1.79245       -0.66962
C          3.46115       -0.22664        0.89116
C          1.64332       -1.06671       -1.08842
C         -1.99388       -1.69657       -0.86795
C         -3.41786        0.11452        0.88343
C         -1.66593        1.18395       -1.11697
P         -1.75334       -0.15301        0.14669
P          1.78588        0.18962        0.24570
C          0.04891       -1.66097        2.45069
O          0.19755       -2.70236        2.92706
H          1.14649        1.87042       -1.29600
C          3.29296        1.88883       -1.56110
H          3.33806        1.05087       -2.27307
H          4.19394        1.80543       -0.92961
C          3.32560        3.21965       -2.30888
H          4.22567        3.27417       -2.94310
H          2.45722        3.27353       -2.99094
C          3.28132        4.39801       -1.34322
H          3.26694        5.35158       -1.89621
H          4.20642        4.40229       -0.73866
C          2.07632        4.30159       -0.41507
H          1.15224        4.41166       -1.00966
H          2.08206        5.12926        0.31323
C          2.02572        2.96334        0.31419
H          2.88616        2.87894        1.00369
H          1.11883        2.89689        0.93416
C          3.71349       -0.07475        2.25595
H          2.90030        0.23960        2.91124
C          4.48840       -0.69543        0.05912
H          4.28974       -0.85234       -1.00412
C          4.97926       -0.35892        2.76958
H          5.17021       -0.24091        3.83911
C          5.75820       -0.99074        0.55856
C          6.84946       -1.48915       -0.34474
H          6.48087       -1.65189       -1.36721
H          7.68240       -0.76945       -0.39801
H          7.26809       -2.44022        0.02027
C          5.99153       -0.80894        1.92931
H          6.97864       -1.03848        2.34131
C          1.39299       -0.77367       -2.43327
H          1.33685        0.25996       -2.77420
C          1.69799       -2.41134       -0.69378
H          1.88091       -2.64769        0.35904
C          1.19064       -1.80807       -3.34814
H          0.98585       -1.57040       -4.39541
C          1.51808       -3.45717       -1.60017
C          1.62267       -4.88308       -1.14217
H          2.67809       -5.18136       -1.02974
H          1.14010       -5.02436       -0.16363
H          1.15710       -5.57483       -1.85853
C          1.25122       -3.13707       -2.93900
H          1.09157       -3.93967       -3.66423
H         -1.11187       -1.70918       -1.53457
C         -3.27270       -1.71239       -1.70715
H         -3.34184       -0.81745       -2.34425
H         -4.14171       -1.67406       -1.02854
C         -3.36121       -2.97679       -2.55644
H         -4.29088       -2.96599       -3.14871
H         -2.52676       -2.98970       -3.28133
C         -3.29317       -4.22548       -1.68630
H         -3.32832       -5.13453       -2.30879
H         -4.18444       -4.25894       -1.03373
C         -2.03585       -4.21773       -0.82665
H         -1.15298       -4.29041       -1.48470
H         -2.00943       -5.10018       -0.16692
C         -1.91364       -2.94650        0.00806
H         -2.71995       -2.91746        0.76354
H         -0.96453       -2.95300        0.55963
C         -3.64701       -0.36632        2.17607
H         -2.81947       -0.82878        2.72240
C         -4.46093        0.74877        0.19626
H         -4.28547        1.13556       -0.81106
C         -4.90724       -0.22893        2.75655
H         -5.08480       -0.60964        3.76545
C         -5.72411        0.90802        0.77182
C         -6.83188        1.59826        0.02922
H         -7.19155        2.48196        0.58008
H         -6.50220        1.93179       -0.96464
H         -7.69701        0.93020       -0.10835
C         -5.93391        0.40453        2.06283
H         -6.91580        0.51931        2.53125
C         -1.36868        0.95429       -2.46360
H         -1.26979       -0.06172       -2.84451
C         -1.77881        2.50936       -0.67417
H         -2.01066        2.70032        0.37803
C         -1.16478        2.02974       -3.32935
H         -0.91719        1.83934       -4.37678
C         -1.59333        3.59647       -1.52968
C         -1.74889        5.00138       -1.02370
H         -2.80830        5.30743       -1.03108
H         -1.38915        5.09689        0.01128
H         -1.19482        5.71873       -1.64590
C         -1.27016        3.33810       -2.86903
H         -1.10146        4.17339       -3.55418
