88
Cat28.ts34.5.log	Energy: -1446708.4800774
C         -0.08945       -0.72310       -3.46065
H          0.32085       -1.55515       -4.03860
H         -1.17291       -0.59668       -3.56918
C          0.72066        0.43338       -3.26965
H          1.74884        0.44445       -3.64132
H          0.25003        1.42301       -3.30023
H          0.60319        0.74560       -1.65352
Rh         0.66337       -0.85799       -1.45448
C         -2.44312        0.73951       -1.02713
C         -2.52277       -2.14432       -0.92667
C         -1.63842       -0.62685        1.42204
C          2.40029       -1.42925        1.57597
C          4.03836       -0.59606       -0.64420
C          2.35192        1.30345        0.80871
P          2.31450       -0.40197        0.05710
P         -1.44057       -0.68807       -0.45508
C          1.13350       -2.68220       -1.53886
O          1.42389       -3.80069       -1.53041
H         -1.95737        1.65768       -0.67215
H         -2.41932        0.74550       -2.12733
H         -3.48373        0.73248       -0.67560
H         -2.52823       -2.12619       -2.02791
H         -1.94419       -3.03364       -0.63404
C         -3.90517       -2.18171       -0.36289
C         -4.18646       -2.91258        0.79946
H         -3.40209       -3.52212        1.25638
C         -4.94609       -1.44971       -0.95127
H         -4.75093       -0.90452       -1.87902
C         -5.45816       -2.87872        1.36706
H         -5.66421       -3.45490        2.27233
C         -6.22495       -1.39455       -0.39065
C         -7.30179       -0.55463       -1.01393
H         -7.34936        0.43708       -0.53330
H         -7.11756       -0.39126       -2.08529
H         -8.29272       -1.01844       -0.90180
C         -6.46835       -2.11743        0.78466
H         -7.46380       -2.09449        1.23663
H         -2.11215       -1.57326        1.72236
H         -0.61723       -0.63129        1.82575
C         -2.40569        0.53840        1.96490
C         -1.73889        1.66055        2.46735
H         -0.64774        1.65501        2.53205
C         -3.80691        0.55390        1.94129
H         -4.34209       -0.32230        1.56872
C         -2.45479        2.77515        2.90337
H         -1.91986        3.64403        3.29520
C         -4.54036        1.66088        2.37232
C         -6.04053        1.65586        2.30227
H         -6.42654        0.64108        2.13074
H         -6.48997        2.04607        3.22812
H         -6.39811        2.29364        1.47652
C         -3.84523        2.78055        2.84967
H         -4.40114        3.65765        3.19267
H          2.52107       -2.48262        1.28395
H          3.22565       -1.13781        2.24219
H          1.44359       -1.33832        2.10964
H          4.01657       -1.58537       -1.12604
H          4.10039        0.14139       -1.45873
C          5.18244       -0.48398        0.31417
C          5.80281        0.74193        0.58423
H          5.48824        1.64180        0.05078
C          5.63923       -1.61934        0.99817
H          5.17394       -2.58629        0.78385
C          6.83106        0.82340        1.52153
H          7.30535        1.78722        1.72237
C          6.67039       -1.55854        1.93840
C          7.15671       -2.79836        2.63173
H          6.41964       -3.61147        2.57050
H          8.09107       -3.16411        2.17443
H          7.36965       -2.60755        3.69422
C          7.25873       -0.31422        2.19876
H          8.06478       -0.24076        2.93404
H          1.62253        1.27050        1.63245
H          3.34554        1.45684        1.25999
C          1.99223        2.39323       -0.15342
C          2.90474        2.87408       -1.09800
H          3.92867        2.49548       -1.11244
C          0.69201        2.91214       -0.16615
H         -0.02977        2.54662        0.56765
C          2.51609        3.83653       -2.02796
H          3.23894        4.20434       -2.76032
C          0.28341        3.88007       -1.08717
C         -1.12619        4.39814       -1.08128
H         -1.63539        4.17155       -0.13343
H         -1.15527        5.48720       -1.23625
H         -1.71804        3.93993       -1.89108
C          1.21653        4.33520       -2.02671
H          0.92286        5.09332       -2.75814
