102
Cat281.ts34.5.log	Energy: -1920934.2167217
C         -0.51231        1.47416       -3.74583
H         -0.60224        0.87963       -4.65814
H         -1.43130        1.98848       -3.44779
C          0.74043        2.05979       -3.43020
H          1.60708        1.86584       -4.06776
H          0.75580        3.04305       -2.94970
H          1.04562        1.62444       -1.76796
Rh         0.35290        0.23910       -2.19402
C         -1.46849        2.48305       -0.22828
O         -3.00696        0.70305       -1.25976
O         -1.44418       -0.16393        0.61021
C          1.42477       -2.34938       -0.10361
O          3.33768       -0.75841       -0.70518
O          1.50836        0.31519        0.73521
P          1.67851       -0.63667       -0.62123
P         -1.40166        0.75157       -0.78943
C          0.34352       -1.31253       -3.30611
O          0.36658       -2.23966       -3.98642
C         -2.64064        3.25342       -0.20275
H         -3.57558        2.81415       -0.55058
C         -0.27690        3.05789        0.22413
H          0.64003        2.46290        0.21711
C         -2.61788        4.55582        0.26924
H         -3.52142        5.16797        0.29200
C         -0.24566        4.35989        0.71665
H          0.69881        4.77238        1.07263
C         -1.42282        5.12018        0.73998
O         -1.49789        6.38566        1.18711
C         -0.33901        7.00220        1.67701
H          0.44381        7.07843        0.90216
H         -0.62909        8.01334        1.98884
H          0.07432        6.46438        2.54822
C         -3.70155       -0.44155       -1.54695
C         -3.18941       -1.41823       -2.39940
H         -2.21200       -1.25984       -2.85440
C         -4.96715       -0.57601       -0.95230
C         -5.51121        0.50447       -0.06932
H         -4.80380        0.76266        0.73284
H         -5.69937        1.42577       -0.64424
H         -6.45760        0.19294        0.39266
C         -3.92514       -2.57660       -2.64370
H         -3.51594       -3.34326       -3.30576
C         -5.68377       -1.74502       -1.22196
H         -6.66756       -1.87166       -0.76166
C         -5.17296       -2.74512       -2.04897
H         -5.75473       -3.65097       -2.23335
C         -2.31874       -0.05104        1.66545
C         -2.37287        1.10939        2.43868
H         -1.70926        1.94030        2.20695
C         -3.10399       -1.17270        1.98464
C         -2.96445       -2.46037        1.23502
H         -3.77746       -3.15174        1.49395
H         -2.97476       -2.30974        0.14730
H         -2.00867       -2.94921        1.48114
C         -3.26404        1.19326        3.50574
H         -3.30527        2.10871        4.10024
C         -3.98811       -1.05761        3.06209
H         -4.61388       -1.91811        3.31433
C         -4.08586        0.11221        3.81219
H         -4.79138        0.17165        4.64397
C          0.19797       -2.96571       -0.38792
H         -0.57243       -2.40536       -0.92171
C          2.40060       -3.07459        0.58778
H          3.36151       -2.60909        0.80840
C         -0.04778       -4.26833        0.01288
H         -0.99710       -4.75945       -0.20742
C          2.16228       -4.38088        1.00067
H          2.94137       -4.91846        1.54102
C          0.93050       -4.98702        0.71523
O          0.60524       -6.24080        1.07054
C          1.53905       -7.01367        1.77402
H          1.80221       -6.55574        2.74351
H          1.06610       -7.98651        1.95736
H          2.46331       -7.17005        1.19103
C          4.21636        0.24289       -1.01862
C          4.06736        1.01481       -2.16913
H          3.21554        0.82096       -2.82111
C          5.31193        0.41510       -0.15648
C          5.47761       -0.46709        1.04282
H          4.58649       -0.44820        1.68944
H          5.63027       -1.51563        0.74042
H          6.34388       -0.15645        1.64251
C          4.99925        2.00943       -2.45661
H          4.87931        2.61660       -3.35704
C          6.23428        1.41622       -0.47490
H          7.09236        1.56619        0.18617
C          6.08244        2.21696       -1.60574
H          6.81751        2.99400       -1.82700
C          1.68400        0.03492        2.06289
C          0.97622       -0.99274        2.68765
H          0.28484       -1.59609        2.10207
C          2.52069        0.89472        2.79444
C          3.16833        2.07535        2.13716
H          3.95732        2.49724        2.77490
H          3.60648        1.82234        1.16219
H          2.42486        2.86897        1.95351
C          1.14312       -1.21549        4.05128
H          0.58490       -2.01981        4.53550
C          2.67154        0.64217        4.16186
H          3.32584        1.29650        4.74475
C          2.00306       -0.40633        4.79023
H          2.13992       -0.57804        5.86021
