82
Cat251.ts34.5.log	Energy: -1927667.9274726
C          0.65424       -3.49177        0.92417
H          0.74250       -4.25720        0.14969
H          1.55877       -3.34238        1.52040
C         -0.61493       -3.26250        1.51780
H         -1.49973       -3.78766        1.14805
H         -0.66120       -3.02980        2.58703
H         -0.82267       -1.61893        1.45548
Rh        -0.11126       -1.68958        0.00430
C          1.58517        0.46578        2.35791
O          3.12603       -0.82501        0.71166
O          1.67577        1.08299       -0.26689
C         -1.73186        0.46257       -2.29457
O         -3.30138       -0.76576       -0.58404
O         -1.77033        1.07942        0.33671
P         -1.70325       -0.28114       -0.64464
P          1.53936       -0.29118        0.70226
C          0.22467       -2.35290       -1.75513
O          0.42975       -2.74057       -2.81551
C          0.36164        0.87292        2.90348
C          2.77293        0.70108        3.05966
C          1.51456        1.75914        4.83086
C          2.73332        1.34437        4.29413
C          0.32936        1.52398        4.13448
H         -0.56105        0.69735        2.34350
H         -0.62651        1.84849        4.55262
H          1.48864        2.26686        5.79820
H          3.66216        1.52830        4.83932
H          3.72344        0.38278        2.62897
C          3.61774       -1.66140       -0.24947
C          3.39251       -1.44014       -1.60999
H          2.79486       -0.58530       -1.92890
C          4.38101       -2.75340        0.16579
H          4.54216       -2.90736        1.23422
C          3.91945       -2.31901       -2.55347
H          3.74169       -2.17565       -3.62037
C          4.91894       -3.62614       -0.77443
H          5.51890       -4.48707       -0.47440
C          4.67647       -3.40103       -2.12528
F          5.18475       -4.24168       -3.02634
C          2.48400        2.14066        0.06712
C          1.94036        3.22921        0.75101
H          0.88708        3.20770        1.03469
C          3.83391        2.13166       -0.28456
H          4.24630        1.27144       -0.81414
C          2.74512        4.31470        1.08236
H          2.34568        5.17595        1.62052
C          4.64305        3.21616        0.04567
H          5.70199        3.23667       -0.21778
C          4.08865        4.29331        0.72645
F          4.86323        5.33022        1.04550
C         -2.91357        0.68179       -3.01018
C         -0.50357        0.88104       -2.82116
C         -1.64020        1.74329       -4.76817
C         -0.46170        1.52349       -4.05565
C         -2.86270        1.32102       -4.24628
H         -3.86583        0.35255       -2.59180
H         -3.78523        1.49307       -4.80565
H         -1.60604        2.24583       -5.73788
H          0.49645        1.85400       -4.46322
H          0.41209        0.72091       -2.24511
C         -3.72258       -1.65726        0.36381
C         -4.20453       -2.89742       -0.05340
H         -4.22192       -3.12408       -1.12056
C         -3.67005       -1.34301        1.72333
H         -3.27858       -0.37394        2.03731
C         -4.64336       -3.82557        0.88649
H         -5.02551       -4.80294        0.58666
C         -4.10133       -2.27166        2.66759
H         -4.06811       -2.05302        3.73635
C         -4.58297       -3.50198        2.23762
F         -4.99661       -4.39128        3.13935
C         -2.46461        2.20895       -0.02007
C         -3.83573        2.30409        0.21679
H         -4.36463        1.46415        0.66889
C         -1.77450        3.26710       -0.61267
H         -0.70564        3.16128       -0.80368
C         -4.51987        3.46464       -0.13726
H         -5.59246        3.56790        0.03607
C         -2.45415        4.42786       -0.96748
H         -1.93916        5.26828       -1.43590
C         -3.82067        4.51118       -0.72603
F         -4.47552        5.62055       -1.06728
