102
Cat202.ts34.5.log	Energy: -1639673.4166265
C          1.06788       -4.08820        1.18395
H          0.91396       -4.95261        0.53289
H          2.10466       -3.95498        1.50967
C          0.02108       -3.73736        2.09549
H         -0.92817       -4.27964        2.05515
H          0.29452       -3.45568        3.11939
H         -0.08561       -2.14395        1.93938
Rh         0.10553       -2.37756        0.33861
O          2.74375       -0.20641        1.26190
C          3.52370       -2.10062       -0.39429
C          1.94665        0.12608       -1.36693
O         -1.44497        0.15070       -1.13838
C         -3.20542       -1.94309       -0.34606
C         -2.13610        0.04068        1.56453
P         -1.65359       -0.96222        0.06370
P          2.02614       -1.09592        0.05212
C         -0.19848       -3.17550       -1.34893
O         -0.38514       -3.60416       -2.40347
C          2.01170        0.24525        2.39276
H          0.93759        0.27303        2.12879
C          2.48656        1.64484        2.72393
H          2.34235        2.31583        1.86671
H          3.55898        1.63243        2.97316
H          1.93495        2.04591        3.58818
C          2.20424       -0.73374        3.53565
H          1.86958       -1.73747        3.23707
H          3.26896       -0.79105        3.81130
H          1.63156       -0.42526        4.42384
H          3.69236       -2.75567        0.47406
H          3.20173       -2.74763       -1.22502
C          4.75491       -1.32509       -0.74275
C          5.14700       -1.16319       -2.07852
H          4.58002       -1.65816       -2.87193
C          5.51334       -0.70176        0.25477
H          5.20228       -0.81328        1.29522
C          6.25556       -0.38360       -2.39924
H          6.55359       -0.26558       -3.44385
C          6.62262        0.09178       -0.04970
C          7.37248        0.79401        1.04502
H          6.79508        1.65565        1.41947
H          7.55131        0.12747        1.90209
H          8.34386        1.17126        0.69507
C          6.98665        0.24458       -1.39294
H          7.85463        0.85774       -1.65080
H          2.65969       -0.20993       -2.13461
H          0.92778        0.02946       -1.76498
C          2.22490        1.54533       -0.98103
C          1.17334        2.39619       -0.62912
H          0.15155        2.01476       -0.64648
C          3.53356        2.04111       -0.94031
H          4.36164        1.38073       -1.20574
C          1.43139        3.71712       -0.26317
H          0.59896        4.37711       -0.00682
C          3.80945        3.35622       -0.56197
C          5.22486        3.85546       -0.50289
H          5.92439        3.11571       -0.91679
H          5.34547        4.79548       -1.06387
H          5.52897        4.06007        0.53700
C          2.73760        4.19586       -0.22750
H          2.93250        5.23255        0.06216
C         -2.44567        0.74154       -1.97677
H         -3.42132        0.66348       -1.47401
C         -2.47659       -0.00611       -3.29729
H         -2.68182       -1.07702       -3.15774
H         -1.50260        0.08172       -3.80212
H         -3.24922        0.40968       -3.96204
C         -2.12219        2.20865       -2.16127
H         -2.11564        2.73404       -1.19755
H         -1.13883        2.33396       -2.63881
H         -2.88082        2.67960       -2.80477
H         -3.06174       -2.27407       -1.38611
H         -3.03610       -2.83905        0.26996
C         -4.58940       -1.42021       -0.10764
C         -5.17038       -1.52820        1.16267
H         -4.62756       -2.03553        1.96475
C         -5.34443       -0.82844       -1.12861
H         -4.93192       -0.78627       -2.13978
C         -6.43761       -1.00532        1.41027
H         -6.87527       -1.09275        2.40751
C         -6.61326       -0.29006       -0.89892
C         -7.37046        0.38968       -2.00232
H         -7.26111        1.48493       -1.93224
H         -7.00261        0.08451       -2.99213
H         -8.44640        0.16698       -1.95159
C         -7.14927       -0.37635        0.39259
H         -8.14191        0.03522        0.59463
H         -2.92201       -0.53216        2.07992
H         -1.24386        0.00870        2.20356
C         -2.55694        1.46422        1.35109
C         -1.63822        2.50004        1.55405
H         -0.61739        2.26785        1.86700
C         -3.86025        1.79487        0.96132
H         -4.59451        1.00005        0.82119
C         -2.02074        3.82681        1.36581
H         -1.29909        4.62777        1.54383
C         -4.25394        3.11842        0.74795
C         -5.64511        3.42985        0.27679
H         -6.34217        2.61785        0.52906
H         -6.02385        4.36455        0.71596
H         -5.66671        3.55393       -0.81940
C         -3.31582        4.13642        0.95904
H         -3.60592        5.18003        0.80922
