90
Cat280.ts34.5.log	Energy: -2071303.4328547
C         -0.86213       -3.15330       -2.17663
H         -0.94844       -3.07131       -3.26283
H         -0.07354       -3.82883       -1.83062
C         -2.03788       -3.01755       -1.38567
H         -2.98799       -2.74585       -1.85373
H         -2.15673       -3.66341       -0.50887
H         -1.58695       -1.97858       -0.19154
Rh        -0.79085       -1.16727       -1.34230
C          1.35849       -2.53555        1.16074
O          2.53162       -1.88967       -1.08684
O          1.69533        0.05985        0.41055
C         -1.05262        2.30600       -0.66323
O         -3.26466        0.93308       -0.38110
O         -1.41567        0.48567        1.34062
P         -1.61941        0.62921       -0.32268
P          1.17581       -1.39466       -0.23621
C         -0.51909       -0.34615       -3.04906
O         -0.32847        0.15128       -4.06572
C          2.13803       -3.70004        1.11758
H          2.73725       -3.91394        0.22997
C          0.58894       -2.27394        2.29853
H         -0.04902       -1.38485        2.32574
C          2.16149       -4.56860        2.19802
H          2.76396       -5.47881        2.18399
C          0.61638       -3.13413        3.39274
H          0.01584       -2.89770        4.27124
C          1.40705       -4.29064        3.34750
O          1.49818       -5.18523        4.34746
C          0.77434       -4.96287        5.52623
H         -0.31392       -4.93826        5.34103
H          1.00082       -5.80142        6.19655
H          1.07262       -4.02102        6.01913
C          2.71261       -1.41588       -2.36145
C          3.13845       -0.10338       -2.57113
H          3.35025        0.53740       -1.71333
C          2.45606       -2.25497       -3.44450
H          2.11540       -3.27417       -3.25695
C          3.29899        0.37416       -3.86902
H          3.62556        1.39727       -4.06259
C          2.62186       -1.78381       -4.74321
H          2.42217       -2.41678       -5.60942
C          3.03396       -0.47101       -4.93925
F          3.18310       -0.01489       -6.18176
C          2.88455        0.41228        0.98120
C          3.07377        1.78393        1.18555
H          2.29000        2.47546        0.86979
C          3.88848       -0.48962        1.34295
H          3.76179       -1.55596        1.16947
C          4.24589        2.25400        1.76866
H          4.40859        3.32037        1.93525
C          5.06287       -0.01758        1.92589
H          5.85860       -0.70546        2.21723
C          5.22949        1.34414        2.13754
F          6.35586        1.78850        2.69690
C          0.24516        2.47285       -1.17013
H          0.85178        1.59194       -1.38895
C         -1.82694        3.43990       -0.39795
H         -2.84634        3.32359       -0.02740
C          0.76248        3.74003       -1.38063
H          1.76917        3.88485       -1.77680
C         -1.31601        4.71722       -0.60527
H         -1.94175        5.58231       -0.38608
C         -0.01047        4.87475       -1.09134
O          0.57390        6.06270       -1.31522
C         -0.14328        7.23717       -1.04710
H         -0.42789        7.30856        0.01710
H          0.52211        8.07366       -1.29425
H         -1.05423        7.31060       -1.66618
C         -4.15147       -0.10816       -0.42643
C         -4.95276       -0.25179       -1.55862
H         -4.84020        0.46151       -2.37652
C         -4.25454       -1.01668        0.62933
H         -3.60633       -0.90436        1.49991
C         -5.86815       -1.29753       -1.63586
H         -6.50706       -1.43214       -2.51044
C         -5.16506       -2.06792        0.55319
H         -5.26399       -2.79363        1.36237
C         -5.96140       -2.19537       -0.57814
F         -6.83388       -3.20044       -0.65174
C         -1.50737        1.54476        2.20457
C         -2.74797        2.04136        2.60686
H         -3.66148        1.59679        2.20945
C         -0.32884        2.10315        2.69940
H          0.62523        1.69055        2.37005
C         -2.80796        3.11087        3.49777
H         -3.76324        3.52243        3.82858
C         -0.38476        3.16954        3.59083
H          0.52336        3.62466        3.99024
C         -1.62600        3.66393        3.97533
F         -1.68427        4.69023        4.82481
