86
Cat268.ts34.5.log	Energy: -1538631.0615385
C         -1.70084        0.97195       -2.90399
H         -1.26132        0.87629       -3.90032
H         -2.60884        0.38060       -2.74644
C         -1.57370        2.21924       -2.22749
H         -0.99052        3.02608       -2.68022
H         -2.42567        2.57623       -1.63821
H         -1.05139        1.81227       -0.69402
Rh        -0.14932        0.69323       -1.43430
C         -3.06838       -0.58448        0.06414
O         -1.61905       -2.38643       -1.11291
O         -0.69401       -1.43746        1.08933
C          2.81463        0.15032        0.35307
O          2.28248        2.65126       -0.10669
O          0.72965        1.46808        1.55727
P          1.40776        1.26412        0.07519
P         -1.33114       -0.94449       -0.35551
C          1.12875        0.04981       -2.68462
O          1.91125       -0.36131       -3.42304
C         -4.14507       -1.41101       -0.28569
H         -3.94737       -2.33261       -0.83597
C         -3.33109        0.60141        0.75599
H         -2.49693        1.25562        1.02961
C         -5.44305       -1.06510        0.06051
H         -6.29199       -1.69751       -0.20673
C         -4.62880        0.95621        1.11711
H         -4.79729        1.88454        1.66331
C         -5.69683        0.11883        0.76731
O         -6.98651        0.37237        1.06092
C         -7.30374        1.53951        1.76567
H         -7.00866        2.44792        1.21127
H         -8.39339        1.54251        1.89555
H         -6.82613        1.56143        2.76124
C         -0.61208       -2.98238       -1.93519
H          0.34926       -2.47334       -1.73850
C         -0.98243       -2.78312       -3.39024
H         -1.06330       -1.71101       -3.61509
H         -1.95046       -3.26150       -3.60658
H         -0.21835       -3.21975       -4.05067
C         -0.49612       -4.44167       -1.54552
H         -0.22172       -4.54438       -0.48608
H         -1.45532       -4.95865       -1.70342
H          0.27234       -4.94325       -2.15243
C         -1.26935       -2.46587        1.90109
H         -1.96385       -3.05869        1.27977
C         -2.02630       -1.84713        3.06080
H         -2.85777       -1.22470        2.70464
H         -1.35112       -1.21607        3.65850
H         -2.43731       -2.63259        3.71319
C         -0.13297       -3.35740        2.36295
H          0.39739       -3.79298        1.50371
H          0.59263       -2.77473        2.95116
H         -0.51086       -4.17917        2.98960
C          2.53938       -1.21277        0.55441
H          1.49993       -1.54985        0.57228
C          4.14355        0.57415        0.34217
H          4.36329        1.62925        0.17092
C          3.56673       -2.11773        0.75705
H          3.36712       -3.17844        0.92177
C          5.18714       -0.33136        0.53688
H          6.21576        0.02950        0.51740
C          4.90236       -1.68514        0.74732
O          5.83499       -2.63587        0.94413
C          7.18657       -2.27103        0.93263
H          7.42336       -1.54585        1.73122
H          7.76197       -3.18924        1.10589
H          7.48708       -1.83949       -0.03836
C          1.68498        3.82010       -0.67422
H          0.58761        3.74337       -0.56439
C          2.02471        3.89101       -2.14901
H          1.62839        3.00388       -2.66443
H          3.11635        3.92120       -2.28849
H          1.58831        4.79186       -2.60712
C          2.18691        5.01221        0.11347
H          1.92171        4.91947        1.17628
H          3.28290        5.08547        0.03878
H          1.75073        5.94476       -0.27476
C          1.49909        1.75488        2.72751
H          2.51858        2.05178        2.42246
C          1.57115        0.51321        3.59440
H          2.06814       -0.30793        3.06036
H          0.55610        0.18455        3.86362
H          2.13216        0.71795        4.51888
C          0.83523        2.92260        3.42929
H          0.78635        3.79673        2.76461
H         -0.19265        2.65530        3.71927
H          1.39185        3.20286        4.33622
