102
Cat287.ts34.5.log	Energy: -1920846.3067929
C          1.19655       -0.21385       -3.61377
H          0.97367        0.57783       -4.33424
H          2.25942       -0.44825       -3.49952
C          0.24714       -1.26078       -3.44426
H         -0.70930       -1.22937       -3.97513
H          0.62344       -2.28133       -3.30719
H          0.05329       -1.39961       -1.82429
Rh         0.16242        0.21266       -1.78470
C          1.54976       -1.32773        1.06393
C          3.46234       -0.72553       -1.00663
C          2.54911        1.34786        0.71649
C         -1.94104        1.48437        0.67433
C         -3.33414        0.24551       -1.52036
C         -2.11966       -1.39225        0.45585
P         -1.78079        0.12378       -0.53818
P          1.91601       -0.09098       -0.24073
C         -0.01743        2.03879       -2.21234
O         -0.10757        3.15704       -2.48542
C          1.07344       -2.59052        0.66992
H          0.97630       -2.81793       -0.39497
C          1.59591       -1.05073        2.43042
H          1.94891       -0.07718        2.77642
C          0.69902       -3.54351        1.59974
H          0.32501       -4.52094        1.29244
C          1.18068       -1.98668        3.38047
H          1.21069       -1.71786        4.43675
C          0.73318       -3.24344        2.96790
O          0.29592       -4.21210        3.80104
C          0.23603       -3.93860        5.17022
H         -0.43167       -3.08591        5.38966
H         -0.16481       -4.83757        5.65620
H          1.23310       -3.72114        5.59339
C          3.96923       -2.01051       -0.81948
H          3.48967       -2.66938       -0.09287
C          4.11461        0.12710       -1.92289
O          3.59360        1.36237       -2.03825
C          4.02678        2.21723       -3.05459
H          5.07675        2.52846       -2.91082
H          3.38165        3.10372       -3.00827
H          3.92354        1.74922       -4.04941
C          5.08411       -2.46034       -1.52878
H          5.46268       -3.47171       -1.36457
C          5.22977       -0.31821       -2.63843
H          5.72944        0.34208       -3.34817
C          5.70922       -1.61314       -2.43831
H          6.58183       -1.95408       -3.00089
C          1.88183        2.56691        0.62328
H          0.98810        2.61583       -0.00020
C          3.71878        1.27889        1.50624
O          4.32862        0.08262        1.57646
C          5.53620       -0.04958        2.26518
H          6.31309        0.62305        1.86160
H          5.85889       -1.08906        2.12526
H          5.41876        0.14821        3.34573
C          2.33042        3.70212        1.29801
H          1.77878        4.64033        1.21406
C          4.18019        2.41592        2.17848
H          5.08231        2.36867        2.78911
C          3.48180        3.61933        2.07225
H          3.85215        4.49858        2.60574
C         -0.99508        1.58746        1.70711
H         -0.22246        0.82258        1.81167
C         -2.87839        2.50807        0.53899
H         -3.61164        2.47065       -0.26932
C         -1.00946        2.65372        2.59099
H         -0.26894        2.73748        3.38837
C         -2.89234        3.59926        1.40900
H         -3.63488        4.38394        1.26181
C         -1.95903        3.67463        2.44750
O         -1.89060        4.68484        3.34011
C         -2.79639        5.74412        3.22583
H         -3.84239        5.40689        3.33887
H         -2.56292        6.44847        4.03465
H         -2.69843        6.26771        2.25808
C         -3.24017        0.44426       -2.89609
H         -2.23483        0.56151       -3.31360
C         -4.61292        0.08424       -0.94426
O         -4.65552       -0.07412        0.38933
C         -5.86772       -0.35403        1.02473
H         -6.58208        0.48382        0.93746
H         -5.63089       -0.51331        2.08429
H         -6.33731       -1.26875        0.62278
C         -4.37425        0.48237       -3.70751
H         -4.27583        0.64266       -4.78310
C         -5.75382        0.10956       -1.75411
H         -6.74480       -0.01733       -1.31719
C         -5.62701        0.30793       -3.12936
H         -6.52740        0.32829       -3.74886
C         -2.22226       -1.40230        1.84562
H         -2.10701       -0.46726        2.39460
C         -2.31012       -2.60673       -0.23556
O         -2.21610       -2.54418       -1.57881
C         -2.44856       -3.68633       -2.34848
H         -1.71909       -4.48624       -2.12915
H         -2.33853       -3.38239       -3.39703
H         -3.46816       -4.08151       -2.19549
C         -2.49683       -2.57570        2.54724
H         -2.56479       -2.55426        3.63699
C         -2.59596       -3.78441        0.46147
H         -2.74689       -4.72118       -0.07555
C         -2.68466       -3.76448        1.85272
H         -2.89350       -4.69164        2.39130
