58
Cat262.ts34.5.log	Energy: -1152679.8109874
C         -4.41294        0.93641        0.31149
H         -5.10730        0.22462        0.76574
H         -4.36804        1.90402        0.82161
C         -4.25872        0.90734       -1.10950
H         -4.76922        0.13390       -1.69024
H         -4.19106        1.86154       -1.64435
H         -2.64369        0.95107       -1.32570
Rh        -2.55065       -0.04902       -0.03964
C          0.51232        1.75547        0.38893
C         -1.76432        3.25465        1.14116
C         -0.88863        1.15688        2.82036
C          0.61789       -1.50161       -0.66827
C         -1.56710       -3.06092       -1.56434
C         -0.84904       -0.73453       -3.02105
P         -1.09376       -1.30415       -1.29697
P         -1.17978        1.50869        1.04232
C         -2.91428       -1.47813        1.12787
O         -3.07487       -2.36000        1.85790
C          0.66566        2.15092       -0.95089
H         -0.22433        2.35408       -1.55483
C          1.66820        1.48442        1.12139
H          1.59907        1.16840        2.16349
C          1.91861        2.26170       -1.53185
H          2.03945        2.55814       -2.57578
C          2.93607        1.57740        0.54767
H          3.80993        1.32224        1.14695
C          3.06829        1.94897       -0.79117
O          4.24416        2.00247       -1.44959
C          5.41257        1.65618       -0.75697
H          5.36507        0.62765       -0.35756
H          6.23708        1.72380       -1.47815
H          5.61361        2.35112        0.07793
H         -1.87768        3.65625        0.12384
H         -2.75008        3.27962        1.62909
H         -1.06160        3.88857        1.70291
H         -0.26982        1.91860        3.32044
H         -1.87353        1.10878        3.30687
H         -0.42051        0.16775        2.92375
C          1.76146       -1.29262       -1.45023
H          1.67153       -0.99864       -2.49705
C          0.79601       -1.86371        0.67010
H         -0.08016       -2.01508        1.30753
C          3.03231       -1.42667       -0.91178
H          3.92112       -1.23839       -1.51680
C          2.06678       -2.01426        1.22291
H          2.16151       -2.29054        2.27338
C          3.19623       -1.77506        0.43239
O          4.46979       -1.82131        0.88415
C          4.69523       -2.15789        2.22424
H          4.31692       -3.16717        2.46337
H          5.78204       -2.14215        2.37569
H          4.22779       -1.43298        2.91448
H         -1.66359       -3.55557       -0.58751
H         -2.54924       -3.09079       -2.05842
H         -0.81992       -3.59459       -2.17169
H         -0.23107       -1.42674       -3.61271
H         -1.84260       -0.65126       -3.48346
H         -0.38776        0.26269       -3.01391
