50
Cat233.ts34.5.log	Energy: -1009044.0365355
C         -3.62336        1.21182       -0.13135
H         -4.41910        0.66425        0.38057
H         -3.51180        2.24989        0.19734
C         -3.37282        0.90138       -1.50433
H         -3.91478        0.07778       -1.97765
H         -3.17291        1.72748       -2.19621
H         -1.74870        0.77487       -1.57738
Rh        -1.85014        0.02314       -0.13406
C          1.28669        1.72200        0.07366
C         -0.89969        3.37257        0.73546
C         -0.05943        1.42151        2.59678
C          1.22173       -1.68446       -0.10043
C         -0.94420       -3.27467       -0.97917
C          0.11098       -1.30775       -2.73270
P         -0.38184       -1.52462       -0.98274
P         -0.39548        1.60035        0.80173
C         -2.46841       -1.15080        1.20310
O         -2.79216       -1.87807        2.04049
C          2.46806        1.58072        0.80865
C          1.37953        1.93082       -1.31051
C          3.79051        1.87366       -1.19553
C          2.61778        2.01617       -1.93940
C          3.70945        1.65175        0.17648
H          2.43159        1.39688        1.88355
H          4.62102        1.52543        0.76567
H          4.76444        1.93025       -1.68761
H          2.66978        2.18835       -3.01764
H          0.46028        2.01418       -1.89873
H         -1.05119        3.66875       -0.31254
H         -1.85595        3.49158        1.26634
H         -0.14365        4.02958        1.19144
H          0.57794        2.22374        3.00047
H         -1.03042        1.43345        3.11251
H          0.40873        0.44536        2.78499
C          1.17681       -1.87895        1.28783
C          2.46741       -1.60322       -0.72891
C          3.58908       -1.92465        1.38868
C          3.64295       -1.71886        0.01299
C          2.34985       -2.00643        2.02566
H          0.20848       -1.92209        1.79471
H          2.29710       -2.16569        3.10567
H          4.51132       -2.01608        1.96750
H          4.60843       -1.63851       -0.49213
H          2.53566       -1.43039       -1.80409
H         -1.19114       -3.56937        0.05047
H         -1.86130       -3.34820       -1.58167
H         -0.17280       -3.95074       -1.37864
H          0.63172       -0.34737       -2.84907
H          0.75269       -2.12592       -3.09314
H         -0.80935       -1.27603       -3.33278
