74
Cat205.ts34.5.log	Energy: -1112184.0589286
C         -1.40710        2.99509       -0.01532
H         -0.94296        3.84909       -0.51643
H         -2.41119        2.75800       -0.38189
C         -1.12652        2.80110        1.37311
H         -0.39205        3.44319        1.86632
H         -1.95280        2.52786        2.04034
H         -0.85728        1.19655        1.47190
Rh        -0.03499        1.35630        0.08445
C         -2.72817       -1.07086       -0.08052
C         -2.42319        0.53900       -2.45790
C         -0.57785       -1.61072       -1.88636
C          2.66607       -1.05959        0.11475
C          2.55915        0.68562        2.41616
C          0.62744       -1.44490        2.07723
P          1.44763       -0.07290        1.13442
P         -1.41562       -0.17130       -1.06687
C          1.18455        2.26675       -1.03262
O          1.88061        2.90296       -1.70076
H         -2.12835       -1.68546        0.61872
C         -3.66294       -2.00591       -0.85017
H         -3.09234       -2.73975       -1.43982
H         -4.25527       -1.41605       -1.57172
C         -4.61654       -2.73813        0.09240
H         -5.29347       -3.38828       -0.48583
H         -4.02986       -3.40666        0.74857
C         -5.41597       -1.76668        0.95256
H         -6.06555       -2.31653        1.65288
H         -6.08847       -1.17791        0.30235
C         -4.49612       -0.81545        1.70874
H         -3.90328       -1.38813        2.44532
H         -5.08578       -0.08493        2.28626
C         -3.54283       -0.09088        0.76467
H         -4.12779        0.56905        0.09795
H         -2.86082        0.56381        1.32715
H         -3.30980        0.99490       -1.98582
C         -1.70551        1.58080       -3.30214
H         -0.83879        1.15964       -3.83062
H         -1.32894        2.39939       -2.67349
H         -2.79708       -0.28925       -3.08327
H         -2.38417        2.00455       -4.05876
H         -1.32950       -2.25942       -2.36468
C          0.49664       -1.22133       -2.88890
H          1.15741       -0.44432       -2.47710
H          0.05721       -0.82317       -3.81491
H         -0.13759       -2.19669       -1.06103
H          1.11385       -2.08960       -3.16762
H          2.01262       -1.69005       -0.51612
C          3.59601       -1.98398        0.90676
H          3.02366       -2.66396        1.55530
H          4.23406       -1.37698        1.57283
C          4.49016       -2.80537       -0.01934
H          5.15743       -3.44807        0.57798
H          3.85835       -3.48572       -0.61896
C          5.29818       -1.91593       -0.95500
H          5.90774       -2.52804       -1.63939
H          6.00871       -1.31460       -0.35904
C          4.38591       -0.98184       -1.73912
H          3.75385       -1.57777       -2.42219
H          4.97727       -0.30526       -2.37675
C          3.48313       -0.16595       -0.81926
H          4.10520        0.52253       -0.21887
H          2.81598        0.46992       -1.41507
H          3.47567        0.98408        1.88078
C          1.97425        1.89464        3.12629
H          1.04228        1.65252        3.65855
H          1.73413        2.68131        2.39694
H          2.85497       -0.09834        3.13353
H          2.68773        2.29996        3.86052
H          1.41083       -2.06364        2.54184
C         -0.38040       -1.01937        3.13041
H         -1.16821       -0.38665        2.69581
H          0.09566       -0.44882        3.94211
H          0.13892       -2.07456        1.31410
H         -0.86255       -1.89873        3.58500
