86
Cat273.ts34.5.log	Energy: -2786868.4409835
C         -0.94735        0.15486       -3.83706
H         -0.80859       -0.70930       -4.49221
H         -1.98276        0.49922       -3.75387
C          0.10287        1.11211       -3.75473
H          1.04715        0.93280       -4.27699
H         -0.15820        2.17530       -3.71209
H          0.24134        1.37557       -2.12301
Rh         0.02469       -0.21539       -1.96365
C         -1.63967        1.86054        0.34921
C         -3.46998        0.33241       -1.24887
C         -2.14445       -0.96174        0.81954
C          1.56183       -1.28365        1.00846
C          3.38392       -0.83113       -1.15522
C          2.30138        1.37453        0.29841
P          1.78604       -0.22311       -0.46768
P         -1.78070        0.25431       -0.51545
C          0.24437       -2.05561       -2.33193
O          0.40718       -3.17521       -2.55714
C         -1.75516        3.03092       -0.42460
H         -2.05717        2.95849       -1.47369
C         -1.22902        1.99751        1.67578
H         -1.12178        1.11218        2.30456
C         -1.47706        4.27654        0.10955
H         -1.56667        5.18506       -0.48928
C         -0.92724        3.24614        2.22401
H         -0.58623        3.30392        3.25773
C         -1.04225        4.39612        1.43975
O         -0.74114        5.63974        1.85445
C         -0.23845        5.81733        3.15223
H          0.71680        5.28418        3.29489
H         -0.06118        6.89314        3.27363
H         -0.96062        5.48567        3.91859
C         -4.44663        1.26320       -0.87859
H         -4.21496        2.03762       -0.14376
C         -3.80146       -0.65397       -2.18678
H         -3.04177       -1.38239       -2.48493
C         -5.72287        1.21815       -1.43446
H         -6.48399        1.94593       -1.14813
C         -5.07549       -0.71843       -2.74051
H         -5.33292       -1.48945       -3.46843
C         -6.03049        0.22539       -2.36292
Cl        -7.61568        0.16458       -3.05755
C         -2.98025       -0.67554        1.90781
H         -3.41931        0.31919        2.01588
C         -1.64254       -2.25694        0.68264
H         -0.99813       -2.48932       -0.16632
C         -3.26595       -1.64596        2.86256
H         -3.90327       -1.42049        3.71913
C         -1.94591       -3.24699        1.61196
H         -1.55526       -4.25792        1.49203
C         -2.73967       -2.92946        2.70902
Cl        -3.08057       -4.14456        3.89715
C          1.09372       -0.75131        2.21941
H          0.98093        0.32872        2.32688
C          1.70072       -2.67150        0.91014
H          2.05198       -3.12090       -0.02262
C          0.76689       -1.57301        3.28523
H          0.38734       -1.16461        4.22350
C          1.38795       -3.50944        1.97938
H          1.50846       -4.58684        1.86323
C          0.90151       -2.96304        3.17373
O          0.53375       -3.68117        4.24810
C          0.55563       -5.07971        4.17462
H          1.57628       -5.46699        4.00906
H          0.18539       -5.44939        5.13866
H         -0.10722       -5.45618        3.37674
C          4.40353       -1.37938       -0.36693
H          4.25298       -1.52161        0.70567
C          3.59335       -0.70215       -2.53146
H          2.77978       -0.30891       -3.14755
C          5.60863       -1.77841       -0.93598
H          6.40104       -2.21316       -0.32460
C          4.79671       -1.08829       -3.11424
H          4.95873       -0.98784       -4.18856
C          5.80006       -1.62438       -2.30921
Cl         7.29753       -2.11989       -3.02191
C          3.27953        1.40987        1.30338
H          3.75307        0.48681        1.64280
C          1.71754        2.57545       -0.10401
H          0.94407        2.55967       -0.87401
C          3.64862        2.60768        1.90262
H          4.40238        2.63179        2.69112
C          2.07899        3.78735        0.48072
H          1.60254        4.71957        0.17505
C          3.03663        3.79183        1.48863
Cl         3.46492        5.28580        2.25886
