102
Cat240.ts34.5.log	Energy: -1499034.0885939
C         -0.88130        0.20361       -3.50516
H         -0.63297       -0.60199       -4.20132
H         -1.94407        0.46421       -3.48742
C          0.07741        1.24335       -3.31086
H          1.05815        1.17690       -3.79068
H         -0.28304        2.27667       -3.23917
H          0.12650        1.42038       -1.68168
Rh         0.04058       -0.19348       -1.61600
C         -1.49763        1.58859        0.97929
C         -3.34653        0.72566       -1.03335
C         -2.24337       -1.21082        1.01726
C          1.46915       -1.12041        1.41685
C          3.32521       -0.98574       -0.75988
C          2.26295        1.53654        0.58088
P          1.79815       -0.13304       -0.10187
P         -1.79079        0.16799       -0.15339
C          0.36380       -1.98939       -2.06029
O          0.58705       -3.09064       -2.33749
C         -1.32734        1.47478        2.36441
C         -1.34840        2.86163        0.40198
C         -0.87921        3.84577        2.55822
C         -1.05896        3.97727        1.17913
C         -1.01003        2.58977        3.14331
H         -1.42726        0.50566        2.85327
H         -0.87362        2.47069        4.22135
H         -0.63884        4.71870        3.16941
H         -0.96093        4.95663        0.70439
H         -1.45040        2.97651       -0.68074
H         -2.92345        1.41809       -1.78727
C         -4.40787        1.50895       -0.25897
H         -3.95020        2.34231        0.29469
H         -4.88086        0.85865        0.49317
C         -5.48020        2.03468       -1.21103
H         -6.25196        2.58165       -0.64502
H         -5.02256        2.76883       -1.89930
C         -6.11359        0.91108       -2.02474
H         -6.85440        1.31764       -2.73240
H         -6.67080        0.24314       -1.34261
C         -5.05962        0.09519       -2.76580
H         -4.58153        0.72693       -3.53666
H         -5.52905       -0.74515       -3.30268
C         -3.98736       -0.42468       -1.81340
H         -4.45330       -1.12843       -1.10238
H         -3.21592       -0.99297       -2.35679
H         -1.38065       -1.20726        1.71078
C         -2.22939       -2.58410        0.33978
H         -1.28758       -2.71246       -0.21134
H         -3.03555       -2.64023       -0.41056
C         -2.40954       -3.70458        1.35888
H         -2.43526       -4.67791        0.84212
H         -1.52702       -3.72390        2.02037
C         -3.66064       -3.51643        2.20842
H         -3.73572       -4.31393        2.96575
H         -4.55713       -3.61058        1.56845
C         -3.66858       -2.14503        2.87286
H         -2.83153       -2.08186        3.59236
H         -4.59370       -2.00060        3.45487
C         -3.52313       -1.03372        1.83719
H         -4.39135       -1.07246        1.15808
H         -3.55365       -0.04619        2.32205
C          1.36538       -2.51523        1.28660
C          1.24086       -0.55716        2.67815
C          0.83903       -2.74232        3.63490
C          0.92037       -1.35980        3.77425
C          1.06806       -3.31713        2.38362
H          1.50973       -2.98540        0.31115
H          1.00417       -4.40045        2.25705
H          0.59634       -3.37109        4.49465
H          0.74104       -0.89463        4.74698
H          1.29756        0.52204        2.81879
H          2.88058       -1.92322       -1.14226
C          4.43840       -1.38432        0.20923
H          4.02423       -1.90878        1.08385
H          4.94730       -0.48690        0.59264
C          5.46279       -2.26438       -0.50404
H          6.27243       -2.54041        0.19118
H          4.97791       -3.20988       -0.80773
C          6.03343       -1.57149       -1.73727
H          6.74412       -2.23441       -2.25715
H          6.61339       -0.68684       -1.41585
C          4.92910       -1.12384       -2.68934
H          4.42401       -2.01243       -3.10877
H          5.35693       -0.57665       -3.54522
C          3.89225       -0.25911       -1.97946
H          4.36702        0.68445       -1.65701
H          3.06913        0.00957       -2.66133
H          1.36733        1.78209        1.18389
C          2.36993        2.63509       -0.47983
H          1.48178        2.61754       -1.12710
H          3.23631        2.43892       -1.13429
C          2.52019        4.00739        0.17017
H          2.62655        4.78002       -0.60893
H          1.59043        4.23861        0.71739
C          3.69526        4.06304        1.13909
H          3.73798        5.04642        1.63520
H          4.64020        3.95845        0.57520
C          3.61008        2.94482        2.17100
H          2.72716        3.10541        2.81658
H          4.49072        2.96163        2.83371
C          3.49276        1.58386        1.49116
H          4.39390        1.42167        0.87675
H          3.47625        0.77569        2.23715
