62
Cat292.ts34.5.log	Energy: -1232130.1066937
C         -3.65266        1.48382       -0.73002
H         -4.51112        1.22689       -0.10384
H         -3.43838        2.55587       -0.77746
C         -3.40740        0.68667       -1.89032
H         -4.02679       -0.19460       -2.08027
H         -3.10054        1.19373       -2.81221
H         -1.81370        0.36347       -1.82367
Rh        -2.01973        0.20520       -0.21190
C          1.31364        1.48774       -0.47830
C         -0.67902        3.48602       -0.68629
C         -0.07994        2.33527        1.89182
C          0.80662       -1.72833        0.53110
C         -1.59420       -3.23724        0.36452
C         -0.36157       -2.27562       -2.07859
P         -0.79590       -1.73552       -0.36549
P         -0.38047        1.84742        0.13505
C         -2.77870       -0.31305        1.42630
O         -3.19904       -0.64569        2.45080
C          2.47182        1.56335        0.30349
H          2.41371        1.85439        1.35305
C          1.44262        1.09218       -1.81816
H          0.54295        1.00281       -2.43442
C          3.72196        1.25351       -0.22939
H          4.62627        1.29100        0.38085
C          2.68400        0.79424       -2.36991
H          2.79227        0.48947       -3.41272
C          3.81213        0.87339       -1.56015
F          5.00309        0.55850       -2.07069
H         -1.68309        3.80762       -0.36450
C          0.34796        4.58014       -0.45416
H          1.35795        4.25200       -0.74449
H          0.38689        4.88636        0.60241
H         -0.77476        3.25214       -1.75985
H          0.10555        5.47867       -1.04323
H          0.73432        3.07608        1.94914
C         -1.33340        2.86526        2.57023
H         -2.15532        2.13733        2.50915
H         -1.68255        3.80092        2.10619
H          0.27545        1.42321        2.39801
H         -1.14296        3.07693        3.63327
C          0.77379       -1.42103        1.89970
H         -0.18493       -1.22094        2.38659
C          2.05101       -1.93323       -0.07391
H          2.12217       -2.14206       -1.14179
C          1.94298       -1.33877        2.64874
H          1.92597       -1.10047        3.71392
C          3.23153       -1.84770        0.66103
H          4.20617       -1.98827        0.19052
C          3.16174       -1.55235        2.01442
F          4.28887       -1.45023        2.71841
H         -1.70350       -3.02182        1.43939
C         -2.94938       -3.54386       -0.25083
H         -2.86648       -3.80218       -1.31837
H         -3.61395       -2.66979       -0.17251
H         -0.90062       -4.08938        0.28161
H         -3.42963       -4.39257        0.25938
H          0.38139       -1.54352       -2.43545
C          0.11182       -3.70759       -2.27957
H         -0.69031       -4.43019       -2.06993
H          0.96147       -3.96580       -1.63066
H         -1.26890       -2.07795       -2.67068
H          0.42893       -3.86748       -3.32186
