94
Cat252.ts34.5.log	Energy: -1777297.9036909
C          0.05316       -3.42405       -1.13608
H          0.72062       -4.08107       -0.57196
H         -0.97845       -3.77017       -1.23514
C          0.58018       -2.54318       -2.08975
H          1.65466       -2.54415       -2.29544
H         -0.04322       -2.23509       -2.93480
H          0.66572       -0.94365       -1.59004
Rh         0.06037       -1.41196       -0.16573
C         -1.53224        0.96597       -2.22057
O         -3.22602       -0.74274       -1.29900
O         -2.18500        0.82860        0.45876
C          1.54927        0.56202        2.30798
O          3.32456       -0.84314        1.09121
O          2.19246        0.96475       -0.34229
P          1.79278       -0.27756        0.70711
P         -1.73040       -0.16823       -0.80256
C         -0.56131       -2.00200        1.51791
O         -0.94331       -2.31436        2.55252
C         -0.34441        1.70727       -2.27329
C         -2.49867        1.13084       -3.21921
C         -1.10441        2.78695       -4.29630
C         -2.27953        2.03694       -4.25508
C         -0.13820        2.62193       -3.30337
H          0.42485        1.56143       -1.50987
H          0.78699        3.20275       -3.33155
H         -0.93880        3.49936       -5.10831
H         -3.03507        2.16034       -5.03486
H         -3.42107        0.55175       -3.17197
C         -4.06154       -1.54546       -0.56824
C         -3.60011       -2.67817        0.10036
H         -2.54259       -2.93297        0.04096
C         -5.42125       -1.19030       -0.54915
C         -5.91164       -0.00650       -1.32302
H         -5.35193        0.90404       -1.06552
H         -5.78574       -0.16573       -2.40630
H         -6.97688        0.17466       -1.12723
C         -4.48572       -3.45477        0.84498
H         -4.11405       -4.33229        1.37869
C         -6.28570       -1.98985        0.20320
H         -7.34524       -1.72183        0.23706
C         -5.83185       -3.10592        0.90538
H         -6.53235       -3.70514        1.49110
C         -3.30458        1.61485        0.56644
C         -3.50651        2.71028       -0.27213
H         -2.77154        2.93834       -1.04386
C         -4.19610        1.30955        1.60869
C         -3.92148        0.16585        2.53526
H         -3.98432       -0.80068        2.01221
H         -2.90653        0.22847        2.95593
H         -4.64445        0.15099        3.36168
C         -4.64438        3.49913       -0.11128
H         -4.80672        4.35294       -0.77303
C         -5.32617        2.12076        1.74531
H         -6.03595        1.89674        2.54624
C         -5.56143        3.19883        0.89291
H         -6.45604        3.81187        1.02318
C          2.52311        0.61102        3.31250
C          0.31776        1.19989        2.50177
C          1.04518        1.95116        4.67870
C          0.07182        1.89897        3.68125
C          2.26647        1.30290        4.49414
H          3.47855        0.10923        3.15825
H          3.02740        1.33601        5.27769
H          0.84935        2.49354        5.60703
H         -0.89005        2.39816        3.82158
H         -0.45477        1.13921        1.73057
C          4.12362       -1.61191        0.29162
C          3.62443       -2.71541       -0.39829
H          2.57335       -2.97272       -0.26969
C          5.48555       -1.26987        0.23387
C          6.02774       -0.14964        1.06606
H          7.07069        0.06768        0.79960
H          5.43850        0.76959        0.94673
H          5.99737       -0.41184        2.13645
C          4.46674       -3.46073       -1.22098
H          4.06872       -4.32123       -1.76423
C          6.30592       -2.03599       -0.59927
H          7.36603       -1.77649       -0.66658
C          5.81002       -3.11173       -1.33498
H          6.47747       -3.68597       -1.98120
C          3.30728        1.75926       -0.33259
C          3.52255        2.69913        0.67402
H          2.80326        2.78500        1.48892
C          4.18359        1.63234       -1.42350
C          3.90188        0.63401       -2.50421
H          3.96745       -0.39696       -2.12112
H          2.88415        0.76050       -2.90485
H          4.62046        0.73498       -3.32851
C          4.65310        3.51283        0.62250
H          4.82762        4.24499        1.41419
C          5.30378        2.46734       -1.45139
H          6.00033        2.38265       -2.28995
C          5.54799        3.39425       -0.43851
H          6.43490        4.03015       -0.48391
