98
Cat283.ts34.5.log	Energy: -1732184.3033754
C          0.43305       -2.94184       -3.09249
H          0.04906       -2.85518       -4.11228
H          1.51360       -3.10528       -3.03263
C         -0.40648       -3.52782       -2.10257
H         -1.43475       -3.80161       -2.35311
H          0.03567       -4.19501       -1.35407
H         -0.27235       -2.49934       -0.82556
Rh        -0.32703       -1.31231       -1.92234
C          1.87583       -0.74590        0.81093
C          3.20325       -1.23886       -1.74145
C          1.94028        1.36180       -1.25447
C         -1.92656        1.34961       -0.17582
C         -3.70020       -0.56171       -1.28394
C         -2.15648       -1.20364        1.11497
P         -1.96637       -0.44372       -0.57081
P          1.66188       -0.48041       -0.98711
C         -0.76663       -0.28393       -3.43840
O         -1.03073        0.35686       -4.36410
C          2.52371       -1.87967        1.32646
H          2.98678       -2.60310        0.65295
C          1.23375        0.09673        1.72571
H          0.68438        0.97062        1.37261
C          2.57300       -2.13150        2.69028
H          3.08296       -3.01194        3.08606
C          1.27153       -0.14223        3.09866
H          0.76820        0.55597        3.76781
C          1.95617       -1.25720        3.59509
O          2.06116       -1.57145        4.90141
C          1.44294       -0.74068        5.84309
H          0.34885       -0.69786        5.69724
H          1.65163       -1.17265        6.83004
H          1.84479        0.28752        5.81097
H          2.97633       -1.22674       -2.81838
H          3.18761       -2.29945       -1.44739
C          4.53444       -0.60727       -1.48298
C          5.31397       -0.93598       -0.36431
H          4.96488       -1.69684        0.33435
C          5.02954        0.36652       -2.36326
H          4.45953        0.61324       -3.26351
C          6.52408       -0.29141       -0.11857
H          7.10926       -0.56305        0.76335
C          6.23561        1.01818       -2.11637
H          6.59256        1.77921       -2.81431
C          6.98634        0.69672       -0.98708
H          7.93185        1.20688       -0.78968
H          0.98600        1.72920       -1.65240
H          2.66676        1.41167       -2.08068
C          2.37873        2.24024       -0.11892
C          3.62362        2.10499        0.50721
H          4.32457        1.34440        0.16467
C          1.50225        3.22217        0.35836
H          0.52584        3.33343       -0.11480
C          3.97073        2.92129        1.58058
H          4.94699        2.79373        2.05495
C          1.84399        4.03770        1.43493
H          1.13092        4.78782        1.78755
C          3.08331        3.88790        2.05438
H          3.35846        4.52118        2.90146
C         -2.13481        1.88519        1.10404
H         -2.30045        1.22870        1.95935
C         -1.74876        2.24598       -1.23496
H         -1.57980        1.86563       -2.24523
C         -2.14564        3.25599        1.31696
H         -2.29365        3.67294        2.31474
C         -1.78704        3.62618       -1.04277
H         -1.64336        4.28562       -1.89880
C         -1.97257        4.14186        0.24634
O         -1.97357        5.45373        0.54874
C         -1.75177        6.38260       -0.47716
H         -2.53418        6.33100       -1.25442
H         -1.77908        7.37614       -0.01258
H         -0.76602        6.23703       -0.95279
H         -3.86598       -1.63212       -1.47717
H         -3.61586       -0.07775       -2.26895
C         -4.79158        0.04745       -0.46098
C         -5.06999        1.41973       -0.54544
H         -4.51056        2.03713       -1.25158
C         -5.53433       -0.71800        0.44862
H         -5.35652       -1.79367        0.52138
C         -6.04083        2.00638        0.26098
H         -6.23554        3.07831        0.17712
C         -6.50773       -0.13387        1.25749
H         -7.07419       -0.75463        1.95598
C         -6.76136        1.23339        1.17087
H         -7.52321        1.69382        1.80429
H         -3.14251       -0.91749        1.51545
H         -1.38472       -0.72858        1.73761
C         -1.95293       -2.68809        1.14175
C         -0.75910       -3.21013        1.65313
H         -0.00588       -2.52774        2.04945
C         -2.90139       -3.58312        0.63230
H         -3.84129       -3.20611        0.22499
C         -0.51553       -4.58158        1.65116
H          0.42626       -4.96004        2.05634
C         -2.66157       -4.95573        0.62772
H         -3.41567       -5.63504        0.22281
C         -1.46559       -5.46161        1.13530
H         -1.27726       -6.53782        1.13018
