62
Cat234.ts34.5.log	Energy: -1107639.2015003
C          3.64534       -0.01105        0.24465
H          4.25939       -0.65138       -0.39434
H          3.91209        1.04935        0.20147
C          3.19179       -0.54209        1.49157
H          3.38454       -1.59000        1.73870
H          3.22250        0.10707        2.37482
H          1.63534       -0.09745        1.53206
Rh         1.58160       -0.49572       -0.03968
C         -0.71724        2.00982        0.71713
C          1.79637        3.08708       -0.15420
C         -0.04298        1.99348       -2.08401
C         -1.79837       -1.41522       -0.61941
C         -0.20272       -3.50307        0.37744
C         -1.09236       -1.35939        2.15127
P         -0.34211       -1.65689        0.48644
P          0.67364        1.63292       -0.41791
C          1.92610       -1.44530       -1.63005
O          2.14032       -2.01293       -2.61356
C         -2.05411        1.82046        0.34114
C         -0.44409        2.34930        2.05172
C         -2.79993        2.30906        2.59045
C         -1.47218        2.50178        2.97708
C         -3.08410        1.96770        1.27004
H         -2.30483        1.53163       -0.68122
H         -4.11751        1.80594        0.95345
H         -3.60750        2.42325        3.31730
H         -1.23557        2.76672        4.01063
H          0.59125        2.47687        2.37881
H          2.30368        2.90812        0.80765
C          2.82600        3.22859       -1.26675
H          2.36735        3.58026       -2.20283
H          3.31414        2.26600       -1.48240
H          1.20276        4.00805       -0.03582
H          3.60755        3.95325       -0.99181
H         -0.80399        1.21637       -2.25545
C         -0.60584        3.38526       -2.32458
H          0.17089        4.16060       -2.24735
H         -1.39380        3.63702       -1.59934
H          0.76612        1.75621       -2.79399
H         -1.04381        3.46086       -3.33248
C         -1.56215       -1.28683       -1.99470
C         -3.12015       -1.35256       -0.16085
C         -3.92503       -1.01245       -2.41560
C         -4.17346       -1.14625       -1.05086
C         -2.61489       -1.09312       -2.88661
H         -0.53604       -1.32141       -2.36734
H         -2.40759       -0.99481       -3.95499
H         -4.75114       -0.84812       -3.11159
H         -5.19706       -1.08820       -0.67212
H         -3.34240       -1.44532        0.90295
H         -0.11753       -3.70736       -0.70271
C          0.98926       -4.09082        1.11318
H          0.89420       -3.98747        2.20427
H          1.91402       -3.57815        0.80574
H         -1.15643       -3.94685        0.71086
H          1.09572       -5.16360        0.89076
H         -1.85848       -2.13522        2.31659
C         -0.12799       -1.31299        3.32381
H          0.60543       -0.50440        3.19507
H          0.43091       -2.25145        3.44989
H         -1.61760       -0.39384        2.07185
H         -0.67779       -1.12059        4.25776
