82
Cat249.ts34.5.log	Energy: -1678687.2898447
C          0.62986       -3.07713       -2.50172
H          0.30430       -3.18428       -3.53940
H          1.71466       -3.07470       -2.35777
C         -0.19478       -3.60362       -1.47116
H         -1.17446       -4.02430       -1.71260
H          0.28160       -4.06848       -0.60088
H         -0.24199       -2.35204       -0.35051
Rh        -0.38200       -1.38370       -1.63041
C          2.82779       -1.43948       -0.30689
O          2.26908        0.78481       -1.77799
O          1.09220        0.49701        0.54277
C         -1.92539        1.54728       -0.40108
O         -3.47491       -0.67258       -0.70391
O         -1.81828       -0.43778        1.25656
P         -1.88447       -0.27261       -0.40049
P          1.47023       -0.34023       -0.83763
C         -1.05760       -0.82527       -3.32689
O         -1.46010       -0.48730       -4.34839
C          2.64068       -2.21245        0.84817
C          3.93324       -1.68409       -1.12790
C          4.68988       -3.40724        0.38834
C          4.86431       -2.66133       -0.77602
C          3.57340       -3.18389        1.19663
H          1.76139       -2.04908        1.47752
H          3.42500       -3.77312        2.10477
H          5.41990       -4.17260        0.66219
H          5.72863       -2.84394       -1.41920
H          4.05615       -1.11241       -2.05060
C          2.97398        1.86722       -1.31309
C          4.36833        1.85623       -1.33603
H          4.89325        0.98124       -1.72018
C          2.28348        2.98395       -0.83992
H          1.19267        2.97267       -0.83401
C          5.07086        2.95895       -0.85362
H          6.16341        2.94736       -0.86720
C          2.99494        4.07489       -0.35088
H          2.44981        4.93692        0.04030
C          4.38950        4.06573       -0.34996
H          4.94462        4.92189        0.03928
C          1.77411        1.12831        1.54575
C          3.14338        1.00426        1.78035
H          3.76229        0.38094        1.13772
C          0.98820        1.94296        2.36531
H         -0.07678        2.02538        2.14038
C          3.71834        1.71338        2.83360
H          4.79379        1.62420        3.00443
C          1.57568        2.63971        3.41634
H          0.95578        3.28003        4.04875
C          2.94554        2.53004        3.65639
H          3.40864        3.08191        4.47705
C         -1.39074        2.21917       -1.50405
C         -2.47333        2.28193        0.65927
C         -1.95643        4.33957       -0.49785
C         -2.48580        3.67265        0.60790
C         -1.41061        3.61255       -1.55402
H         -0.93490        1.64698       -2.31573
H         -0.98634        4.12958       -2.41772
H         -1.96704        5.43170       -0.53380
H         -2.91348        4.24072        1.43738
H         -2.88278        1.75946        1.52534
C         -4.53836       -0.02340       -0.12767
C         -5.18241        0.98826       -0.83948
H         -4.81393        1.25178       -1.83246
C         -4.97564       -0.38633        1.14651
H         -4.45952       -1.18259        1.68512
C         -6.26785        1.64578       -0.26654
H         -6.77102        2.44008       -0.82292
C         -6.06163        0.28001        1.71109
H         -6.40513       -0.00212        2.70925
C         -6.70851        1.29758        1.01026
H         -7.55897        1.81666        1.45777
C         -1.42313       -1.57376        1.89660
C         -1.94643       -2.82572        1.56245
H         -2.68182       -2.90623        0.75939
C         -0.47985       -1.44935        2.91764
H         -0.08242       -0.46012        3.15037
C         -1.50756       -3.95608        2.25037
H         -1.91329       -4.93508        1.98440
C         -0.05647       -2.58571        3.60273
H          0.68334       -2.48517        4.40063
C         -0.56176       -3.84308        3.26849
H         -0.22314       -4.73233        3.80454
