110
Cat206.ts34.5.log	Energy: -1407984.2012117
C          0.37677        1.29924        2.91252
H          0.70879        0.69156        3.75897
H          1.01883        2.16230        2.70760
C         -1.03033        1.43186        2.69582
H         -1.72474        0.85352        3.31116
H         -1.42919        2.42069        2.43920
H         -1.16740        1.24331        1.08413
Rh        -0.07885        0.05116        1.23599
C          0.91947        2.65315       -1.10075
C          3.06522        1.59511        0.51388
C          2.01373        0.08014       -1.70131
C         -0.87538       -2.51356       -1.21270
C         -3.08874       -1.65785        0.43306
C         -2.04773        0.06112       -1.64329
P         -1.48304       -1.02741       -0.25348
P          1.44984        1.07583       -0.24154
C          0.64389       -1.45187        2.11880
O          1.09499       -2.31596        2.73994
H          0.08880        2.31244       -1.74855
C          1.95942        3.34264       -1.98574
H          2.36532        2.64651       -2.73560
H          2.81243        3.66404       -1.36242
C          1.37210        4.56509       -2.68832
H          2.14378        5.05263       -3.30638
H          0.57985        4.23391       -3.38466
C          0.78124        5.55486       -1.69185
H          0.32968        6.41095       -2.21917
H          1.59410        5.96794       -1.06716
C         -0.24650        4.87794       -0.79352
H         -1.11262        4.56850       -1.40500
H         -0.63447        5.58768       -0.04474
C          0.33346        3.64982       -0.09958
H          1.12538        3.97283        0.60112
H         -0.43356        3.14901        0.50951
H          3.80271        1.75759       -0.29138
H          2.88813        2.58277        0.97419
C          3.61684        0.64594        1.56807
H          2.84469        0.48106        2.33523
H          3.79991       -0.34779        1.12780
C          4.89620        1.15287        2.21766
H          4.70991        2.14749        2.66392
H          5.66927        1.31498        1.44362
C          5.44099        0.21538        3.28630
H          4.66324        0.05475        4.05343
H          5.62092       -0.77730        2.83697
C          6.71547        0.71959        3.94351
H          7.08290        0.02034        4.70997
H          6.55426        1.69394        4.43272
H          7.52092        0.85472        3.20335
H          1.10639       -0.12491       -2.29658
H          2.67505        0.68905       -2.33968
C          2.70602       -1.22602       -1.34288
H          3.68219       -1.00656       -0.87902
H          2.11891       -1.75178       -0.57028
C          2.92566       -2.14058       -2.53971
H          3.42894       -1.58066       -3.34894
H          1.94512       -2.43976       -2.95505
C          3.73678       -3.38554       -2.20833
H          4.74667       -3.08072       -1.88234
H          3.28598       -3.88905       -1.33521
C          3.84105       -4.36460       -3.36602
H          4.44882       -5.24367       -3.10352
H          4.30067       -3.89313       -4.24968
H          2.84562       -4.72835       -3.66999
H         -0.04813       -2.10371       -1.82072
C         -1.90165       -3.14096       -2.16151
H         -2.29501       -2.39535       -2.86853
H         -2.76467       -3.50475       -1.57692
C         -1.30943       -4.31325       -2.93990
H         -2.07517       -4.74537       -3.60467
H         -0.50166       -3.94090       -3.59642
C         -0.74655       -5.37503       -2.00490
H         -0.29851       -6.20073       -2.58129
H         -1.57257       -5.81646       -1.41800
C          0.27852       -4.76645       -1.05830
H          1.15055       -4.42986       -1.64465
H          0.65585       -5.52294       -0.35159
C         -0.28657       -3.57833       -0.28583
H         -1.07031       -3.93720        0.40594
H          0.49596       -3.13680        0.34442
H         -3.83908       -1.67751       -0.37630
H         -2.91357       -2.70758        0.72412
C         -3.60479       -0.88701        1.63758
H         -2.83228       -0.92181        2.42300
H         -3.71438        0.18207        1.38668
C         -4.92421       -1.42132        2.17402
H         -4.81145       -2.49298        2.42148
H         -5.69332       -1.37886        1.38058
C         -5.42329       -0.67013        3.40074
H         -4.65010       -0.71469        4.18807
H         -5.52889        0.40031        3.14934
C         -6.73977       -1.20106        3.94426
H         -7.07228       -0.63749        4.82922
H         -6.65238       -2.25957        4.23803
H         -7.53953       -1.13601        3.18876
H         -1.13101        0.34366       -2.18923
H         -2.66041       -0.53220       -2.34040
C         -2.81054        1.31062       -1.23395
H         -3.78347        1.02669       -0.79648
H         -2.25656        1.82821       -0.43243
C         -3.03995        2.27722       -2.38711
H         -3.55540        1.75880       -3.21604
H         -2.06050        2.58821       -2.79600
C         -3.83420        3.51354       -1.98986
H         -4.83596        3.20415       -1.64340
H         -3.35168        3.98513       -1.11546
C         -3.96647        4.53183       -3.11025
H         -4.55625        5.40703       -2.79849
H         -4.46008        4.09461       -3.99312
H         -2.97785        4.89609       -3.43465
