110
Cat228.ts34.5.log	Energy: -1407985.8087215
C         -1.92942       -0.04014       -3.04354
H         -2.09036       -0.97719       -3.58346
H         -2.85268        0.48817       -2.78364
C         -0.77251        0.73386       -3.37609
H         -0.04750        0.33428       -4.09121
H         -0.88515        1.82200       -3.45959
H         -0.14501        1.13252       -1.95430
Rh        -0.53730       -0.36990       -1.45795
C         -1.71984        2.29324        0.74329
C         -3.70064        0.32687        0.01560
C         -1.67273       -0.30358        1.96420
C          2.23754       -2.13040       -0.20604
C          2.92698        0.37771       -1.53258
C          1.72060        0.46561        1.08119
P          1.58339       -0.41709       -0.54401
P         -1.87589        0.48651        0.29051
C         -0.73263       -2.23900       -1.49928
O         -0.86013       -3.38861       -1.47820
H         -0.65635        2.37806        1.03789
C         -2.56310        2.79181        1.91691
H         -2.40186        2.16645        2.80881
H         -3.63436        2.70632        1.66287
C         -2.24489        4.25001        2.24209
H         -2.87859        4.59994        3.07347
H         -1.20047        4.31838        2.59802
C         -2.42022        5.14870        1.02334
H         -2.14843        6.18820        1.26905
H         -3.48819        5.16626        0.73899
C         -1.59892        4.64658       -0.15887
H         -0.52323        4.73698        0.07953
H         -1.77360        5.27735       -1.04574
C         -1.91208        3.18886       -0.48023
H         -2.95712        3.11120       -0.83180
H         -1.27568        2.82676       -1.30248
H         -3.93791        0.97573       -0.84510
H         -4.23840        0.73937        0.88430
C         -4.14394       -1.09815       -0.28467
H         -3.42695       -1.54618       -0.99233
H         -4.08723       -1.70806        0.63527
C         -5.55414       -1.22037       -0.86560
H         -5.57749       -0.61595       -1.79266
C         -5.84387       -2.66772       -1.24526
H         -5.09039       -3.05626       -1.94773
H         -6.83364       -2.77138       -1.71670
H         -5.83070       -3.31628       -0.35318
C         -6.62314       -0.67675        0.07563
H         -7.62946       -0.78637       -0.35799
H         -6.47421        0.39059        0.29874
H         -6.61301       -1.22355        1.03405
H         -2.60398       -0.17517        2.54243
H         -0.89892        0.28461        2.48431
C         -1.27278       -1.76981        1.90816
H         -2.04999       -2.34178        1.37625
H         -0.37450       -1.86618        1.27622
C         -1.00988       -2.43337        3.26187
H         -1.91073       -2.29325        3.88922
C         -0.79554       -3.93105        3.07221
H         -1.66019       -4.40303        2.58096
H         -0.62872       -4.44241        4.03304
H          0.08599       -4.11889        2.43583
C          0.17396       -1.81454        3.99841
H          0.32199       -2.28775        4.98142
H          0.04560       -0.73493        4.16999
H          1.10526       -1.95534        3.42348
H          1.34676       -2.63713        0.20883
C          3.35969       -2.28966        0.81835
H          3.09134       -1.80405        1.76902
H          4.27636       -1.79205        0.45315
C          3.65086       -3.76815        1.07174
H          4.47697       -3.87142        1.79424
H          2.76382       -4.22525        1.54729
C          3.97017       -4.51721       -0.21672
H          4.12672       -5.58798       -0.00784
H          4.92450       -4.13853       -0.62656
C          2.87190       -4.32848       -1.25720
H          1.94044       -4.80952       -0.90982
H          3.14573       -4.82768       -2.20074
C          2.59710       -2.85025       -1.50829
H          3.50149       -2.38530       -1.94010
H          1.79094       -2.72378       -2.24747
H          3.03185       -0.21099       -2.45748
H          3.87259        0.27613       -0.97563
C          2.64040        1.83117       -1.88340
H          1.74296        1.85945       -2.52101
H          2.37339        2.40341       -0.97586
C          3.78322        2.55760       -2.59734
H          4.08299        1.93480       -3.46143
C          3.29915        3.90061       -3.13216
H          2.44866        3.77650       -3.82043
H          4.09732        4.43248       -3.67292
H          2.96597        4.55199       -2.30655
C          5.00490        2.74138       -1.70310
H          5.82093        3.24687       -2.24239
H          5.39950        1.78311       -1.33315
H          4.75475        3.36076       -0.82488
H          1.28755       -0.22433        1.82397
H          0.99816        1.28873        0.99238
C          3.05827        1.00507        1.56838
H          3.83877        0.23227        1.50449
H          3.39279        1.82267        0.90686
C          3.01723        1.53035        3.00750
H          2.73382        0.68205        3.65969
C          4.40025        2.00840        3.43385
H          5.15265        1.21177        3.32435
H          4.40799        2.33738        4.48454
H          4.72712        2.86120        2.81544
C          1.97722        2.62998        3.19891
H          2.00486        3.02611        4.22570
H          0.95291        2.27240        3.01423
H          2.16551        3.47289        2.51202
