80
Cat26.ts34.5.log	Energy: -1536759.1565907
C         -0.82906       -2.76086       -0.99892
H         -0.70152       -3.59560       -0.30432
H         -1.84390       -2.64283       -1.39211
C          0.27372       -2.40519       -1.82947
H          1.24086       -2.89651       -1.69175
H          0.07289       -2.13796       -2.87337
H          0.35297       -0.79130       -1.69595
Rh         0.01427       -1.00019       -0.12049
C         -1.56935        1.94213       -1.45247
C         -3.27474       -0.34029       -1.17832
C         -2.57681        1.21802        1.10583
C          1.57288        1.45537        1.83699
C          3.28575       -0.66412        0.93928
C          2.54684        1.44928       -0.84442
P          1.82656        0.31800        0.41790
P         -1.82177        0.45653       -0.39589
C         -0.01846       -1.77709        1.59261
O         -0.06555       -2.26331        2.63977
H         -0.76534        2.53532       -0.99374
H         -1.21887        1.62566       -2.44491
H         -2.47754        2.55158       -1.54588
C         -3.70403       -0.06848       -2.47693
H         -3.22815        0.73464       -3.04291
C         -3.90758       -1.38355       -0.46820
O         -3.44345       -1.60098        0.77473
C         -3.83004       -2.74384        1.48056
H         -4.89851       -2.71388        1.75871
H         -3.22197       -2.76305        2.39377
H         -3.63467       -3.66250        0.90027
C         -4.73485       -0.79988       -3.07066
H         -5.05304       -0.56768       -4.08939
C         -4.94022       -2.11923       -1.05547
H         -5.42730       -2.92381       -0.50342
C         -5.35077       -1.82174       -2.35588
H         -6.15912       -2.40150       -2.80808
C         -1.98253        0.99295        2.34548
H         -1.09204        0.36316        2.37006
C         -3.75626        1.99314        1.06105
O         -4.31725        2.18337       -0.15057
C         -5.58686        2.76075       -0.24631
H         -6.32987        2.20982        0.35592
H         -5.87478        2.70305       -1.30389
H         -5.58633        3.81959        0.06823
C         -2.51038        1.52077        3.52360
H         -2.02233        1.32404        4.48036
C         -4.29646        2.52101        2.23881
H         -5.20701        3.12013        2.20869
C         -3.66932        2.28580        3.46224
H         -4.10285        2.70636        4.37319
H          1.21643        0.88129        2.70352
H          2.48454        2.00946        2.09397
H          0.77289        2.15292        1.55143
C          3.68815       -0.77323        2.26923
H          3.16586       -0.20191        3.03856
C          3.97602       -1.41472       -0.03530
O          3.53488       -1.27531       -1.30086
C          4.17585       -1.95110       -2.34147
H          5.23761       -1.65935       -2.42653
H          3.65418       -1.66649       -3.26407
H          4.11548       -3.04714       -2.21900
C          4.74984       -1.59974        2.64208
H          5.04275       -1.67205        3.69162
C          5.04618       -2.23462        0.32883
H          5.58344       -2.81089       -0.42500
C          5.42732       -2.32490        1.66892
H          6.26213       -2.97353        1.94516
C          1.93310        1.56761       -2.08890
H          1.03161        0.97552       -2.26262
C          3.73400        2.17708       -0.61117
O          4.30809        2.03364        0.59939
C          5.58594        2.55271        0.83183
H          6.31705        2.17352        0.09714
H          5.88046        2.21323        1.83301
H          5.59504        3.65680        0.80941
C          2.45201        2.38648       -3.09146
H          1.94749        2.46041       -4.05705
C          4.26680        2.99347       -1.61473
H          5.18463        3.55532       -1.43954
C          3.62175        3.09696       -2.84688
H          4.04832        3.74159       -3.61956
