78
Cat239.ts34.5.log	Energy: -1394994.7204895
C          1.30758       -1.94934       -2.45335
H          1.03064       -1.80320       -3.50068
H          2.37316       -1.81607       -2.23949
C          0.57203       -2.89738       -1.68665
H         -0.28766       -3.40647       -2.13130
H          1.11843       -3.51410       -0.96443
H          0.19853       -2.08839       -0.27222
Rh        -0.03568       -0.79925       -1.21827
C          3.01381       -0.80022        0.51985
O          2.66171        1.30711       -0.96466
O          1.24497        1.16073        1.17630
C         -2.54422        1.25046        0.11845
O         -3.17743       -1.26965       -0.02543
O         -1.37733       -0.66142        1.69863
P         -1.78258       -0.40568        0.12982
P          1.68060        0.26281       -0.14051
C         -0.77461        0.17784       -2.67238
O         -1.21916        0.79397       -3.53744
C          2.63276       -1.83648        1.38417
C          4.35784       -0.66196        0.16185
C          4.92980       -2.56382        1.54114
C          5.31143       -1.54337        0.67242
C          3.58747       -2.70855        1.89841
H          1.57770       -1.94564        1.65541
H          3.28466       -3.50886        2.57809
H          5.67872       -3.25332        1.93849
H          6.36085       -1.43158        0.38831
H          4.64411        0.14244       -0.51798
C          2.11957        2.16760       -1.97124
H          1.01991        2.18941       -1.86041
C          2.46342        1.60860       -3.33616
H          2.04926        0.59706       -3.44433
H          3.55605        1.55680       -3.46336
H          2.04601        2.24168       -4.13335
C          2.67515        3.55769       -1.74053
H          2.40155        3.92931       -0.74287
H          3.77364        3.54899       -1.81403
H          2.28278        4.25936       -2.49157
C          2.17135        1.92414        1.95721
H          3.10830        2.03529        1.38345
C          2.45572        1.20850        3.26347
H          2.92051        0.22964        3.08659
H          1.51965        1.05272        3.82086
H          3.13695        1.80650        3.88769
C          1.55440        3.29287        2.16937
H          1.35974        3.78732        1.20662
H          0.59716        3.19957        2.70510
H          2.22388        3.93597        2.76008
C         -3.91808        1.45686       -0.03789
C         -1.68617        2.35167        0.24083
C         -3.57463        3.84747        0.07096
C         -2.20220        3.64403        0.22365
C         -4.42907        2.75438       -0.06115
H         -4.57654        0.59369       -0.14658
H         -5.50315        2.91185       -0.18674
H         -3.97851        4.86274        0.05015
H         -1.52856        4.49854        0.32658
H         -0.61452        2.18028        0.37001
C         -3.14684       -2.64757       -0.41085
H         -2.14794       -3.05711       -0.17299
C         -3.37844       -2.75507       -1.90414
H         -2.58575       -2.21648       -2.44386
H         -4.35019       -2.31286       -2.17269
H         -3.37294       -3.80815       -2.22459
C         -4.19465       -3.36901        0.41051
H         -3.99112       -3.26421        1.48568
H         -5.19296       -2.95138        0.20815
H         -4.21102       -4.44061        0.16173
C         -2.27945       -0.42145        2.78305
H         -3.29560       -0.27048        2.37699
C         -1.84088        0.82357        3.52818
H         -1.86607        1.70251        2.86996
H         -0.81163        0.69734        3.89615
H         -2.50155        1.01283        4.38772
C         -2.27640       -1.66004        3.65594
H         -2.58209       -2.54268        3.07659
H         -1.26506       -1.84295        4.05058
H         -2.96627       -1.54249        4.50507
