106
Cat286.ts34.5.log	Energy: -1547077.7371962
C         -0.74718       -3.70811       -1.35520
H         -0.91121       -4.56329       -0.69383
H         -1.58647       -3.49790       -2.02668
C          0.58078       -3.47564       -1.83568
H          1.40479       -4.09107       -1.46286
H          0.71386       -3.19613       -2.88733
H          0.75383       -1.86240       -1.65332
Rh        -0.00174       -2.05619       -0.22880
C         -0.91516        0.95509       -1.81955
C         -3.05292       -0.96203       -1.79379
C         -2.36634        0.44271        0.62452
C          0.99270        0.62686        1.77896
C          3.00714       -1.39254        1.53413
C          2.45189        0.35812       -0.70352
P          1.60920       -0.63244        0.59736
P         -1.58440       -0.42018       -0.80543
C         -0.40984       -2.82033        1.44455
O         -0.66640       -3.25659        2.48468
C         -0.35496        0.64011       -3.07188
H         -0.43829       -0.38040       -3.45682
C         -0.75294        2.26140       -1.35367
H         -1.16288        2.55605       -0.38704
C          0.34687        1.57729       -3.80951
H          0.79008        1.32712       -4.77536
C         -0.02909        3.21561       -2.07628
H          0.08800        4.21725       -1.66118
C          0.53719        2.87445       -3.30640
O          1.28315        3.70453       -4.06319
C          1.54667        4.99366       -3.58629
H          2.09141        4.97091       -2.62541
H          2.17566        5.48602       -4.33864
H          0.62115        5.58175       -3.45544
H         -2.65563       -1.42039       -2.71570
H         -3.63764       -0.08082       -2.10121
C         -3.89586       -1.97401       -1.02811
H         -3.21979       -2.68884       -0.52827
H         -4.44441       -1.46149       -0.21702
C         -4.89942       -2.75049       -1.88286
H         -4.32442       -3.26357       -2.67757
C         -5.59234       -3.81895       -1.04579
H         -4.86287       -4.50289       -0.58496
H         -6.28516       -4.42152       -1.65365
H         -6.17764       -3.35939       -0.23163
C         -5.91673       -1.83613       -2.55620
H         -6.63397       -2.41376       -3.15997
H         -5.43689       -1.10397       -3.22294
H         -6.49378       -1.27382       -1.80224
H         -1.54105        0.96010        1.13888
H         -2.65839       -0.36687        1.31125
C         -3.52366        1.39734        0.35548
H         -3.33970        1.96804       -0.57010
H         -4.44873        0.82297        0.16938
C         -3.77531        2.39056        1.49417
H         -2.84146        2.96753        1.63900
C         -4.88079        3.36956        1.11929
H         -4.64650        3.90182        0.18398
H         -5.03568        4.12360        1.90679
H         -5.83811        2.84239        0.97038
C         -4.08360        1.68952        2.81204
H         -4.27390        2.42177        3.61243
H         -3.25105        1.04710        3.13612
H         -4.98213        1.05590        2.72004
C          0.92588        1.99672        1.48326
H          1.35553        2.38277        0.55849
C          0.41202        0.19276        2.97655
H          0.41744       -0.86950        3.23284
C          0.28142        2.88663        2.33270
H          0.21676        3.95044        2.09533
C         -0.22533        1.07476        3.84586
H         -0.67295        0.68732        4.76125
C         -0.31056        2.43371        3.51802
O         -0.94186        3.36028        4.26478
C         -1.51889        2.96937        5.48056
H         -0.76658        2.55977        6.17721
H         -1.95885        3.87178        5.92343
H         -2.31561        2.22007        5.33424
H          2.56338       -1.83932        2.43948
H          3.68895       -0.59340        1.86570
C          3.71678       -2.46279        0.71945
H          2.94941       -3.15267        0.32777
H          4.19443       -2.00472       -0.16693
C          4.77292       -3.26181        1.48545
H          4.27295       -3.70557        2.36715
C          5.29804       -4.40300        0.62210
H          4.48142       -5.06117        0.28692
H          6.02734       -5.02054        1.16912
H          5.80188       -4.01263       -0.27821
C          5.91637       -2.38523        1.98450
H          6.67117       -2.98188        2.52008
H          5.56754       -1.60048        2.67246
H          6.42375       -1.88838        1.13980
H          1.65587        0.97436       -1.15206
H          2.71369       -0.37023       -1.48572
C          3.65277        1.20846       -0.30471
H          3.51731        1.61410        0.71205
H          4.55805        0.57719       -0.25354
C          3.90728        2.37809       -1.26062
H          2.98999        2.99925       -1.25500
C          5.06193        3.23968       -0.76573
H          4.88352        3.60474        0.25800
H          5.21769        4.11555       -1.41509
H          6.00319        2.66510       -0.75445
C          4.13394        1.91699       -2.69548
H          4.29702        2.77431       -3.36645
H          3.27069        1.35914       -3.08665
H          5.02117        1.26451       -2.76139
