90
Cat212.ts34.5.log	Energy: -1494490.7436579
C         -0.80000        0.66852       -3.50852
H         -0.51590       -0.02152       -4.30770
H         -1.85620        0.95644       -3.51918
C          0.15293        1.65762       -3.10085
H          1.16724        1.63955       -3.51227
H         -0.20949        2.68156       -2.93885
H          0.04134        1.61669       -1.53541
Rh         0.01640       -0.00056       -1.64782
C         -2.43018        1.33376        0.64880
C         -3.30719       -1.08521       -0.72648
C         -1.34470       -1.29966        1.27969
C          2.33986       -1.14316        0.95967
C          3.30010        0.83541       -0.92238
C          1.38439        1.60575        1.06433
P          1.74788        0.24923       -0.12687
P         -1.78414       -0.22552       -0.14488
C          0.30476       -1.74271       -2.31644
O          0.39560       -2.80629       -2.75554
H         -1.55999        1.68149        1.23890
C         -3.64450        1.20810        1.56726
H         -3.48392        0.44370        2.34252
H         -4.50746        0.86644        0.97064
C         -3.98044        2.55096        2.21187
H         -4.85973        2.44487        2.86822
H         -3.14065        2.86139        2.86039
C         -4.22785        3.62466        1.15872
H         -4.42919        4.59700        1.63740
H         -5.13751        3.36438        0.58771
C         -3.04934        3.73662        0.19851
H         -2.16689        4.11237        0.74705
H         -3.26463        4.47401       -0.59216
C         -2.69519        2.39071       -0.42489
H         -3.52328        2.04760       -1.07243
H         -1.80995        2.48734       -1.07110
C         -3.56445       -1.14236       -2.09973
C         -4.21240       -1.69286        0.15640
C         -5.61699       -2.34926       -1.69714
C         -5.35869       -2.31865       -0.32594
C         -4.71590       -1.76361       -2.58317
H         -2.83243       -0.71424       -2.78639
H         -4.90084       -1.80095       -3.65947
H         -6.51601       -2.84317       -2.07408
H         -6.05338       -2.79122        0.37300
H         -4.00885       -1.69200        1.22940
C         -1.08578       -2.65296        1.00399
C         -1.16346       -0.84100        2.58909
C         -0.47529       -3.04629        3.30920
C         -0.72502       -1.70687        3.59397
C         -0.66551       -3.51789        2.00738
H         -1.21232       -3.02605       -0.01607
H         -0.47601       -4.56775        1.77120
H         -0.13628       -3.72371        4.09642
H         -0.58523       -1.32700        4.60944
H         -1.35051        0.20411        2.83619
H          1.48991       -1.31713        1.64530
C          3.59736       -0.82998        1.77189
H          3.47250        0.09106        2.36155
H          4.43086       -0.63805        1.07508
C          3.96964       -1.99698        2.68171
H          4.87704       -1.74928        3.25642
H          3.16300       -2.15598        3.42063
C          4.17632       -3.27355        1.87616
H          4.41624       -4.11807        2.54265
H          5.04987       -3.14211        1.21211
C          2.94591       -3.59188        1.03632
H          2.10417       -3.83422        1.70812
H          3.11939       -4.48637        0.41643
C          2.53436       -2.42289        0.14643
H          3.30755       -2.25168       -0.62467
H          1.60681       -2.67015       -0.38602
C          3.60315        0.35259       -2.20128
C          4.19545        1.71389       -0.29812
C          5.67259        1.59785       -2.20769
C          5.37148        2.09615       -0.94025
C          4.78761        0.72271       -2.83581
H          2.88188       -0.30408       -2.69753
H          5.01364        0.33456       -3.83196
H          6.59555        1.89889       -2.70935
H          6.05847        2.78760       -0.44604
H          3.96824        2.10784        0.69514
C          1.19866        2.90075        0.55425
C          1.16238        1.39268        2.42838
C          0.55066        3.71316        2.73488
C          0.74137        2.43678        3.25530
C          0.79197        3.94379        1.37843
H          1.37026        3.08996       -0.50869
H          0.65437        4.94326        0.95889
H          0.21974        4.52895        3.38180
H          0.56377        2.24452        4.31644
H          1.29745        0.40086        2.85910
