90
Cat254.ts34.5.log	Energy: -1588552.0064932
C         -0.82651        2.82865       -1.89840
H         -0.71413        2.86119       -2.98543
H         -1.84959        3.00216       -1.54934
C          0.26330        3.26003       -1.09294
H          1.21257        3.53431       -1.56012
H          0.06028        3.83613       -0.18323
H          0.40381        2.08184        0.04072
Rh         0.10406        1.03974       -1.16007
C         -1.20234        0.14618        1.97452
C         -3.22310        1.18726        0.25518
C         -2.24735       -1.51275       -0.12206
C          1.95981       -1.82938       -0.13778
C          3.41459        0.08801       -1.67890
C          2.80286        0.58767        1.13998
P          2.01262       -0.01398       -0.43630
P         -1.63600        0.22403        0.19201
C          0.09449        0.20066       -2.84860
O          0.08574       -0.31837       -3.88069
C         -0.28498       -0.82916        2.39773
C         -1.65941        1.07780        2.91480
C         -0.31094        0.05678        4.64670
C         -1.21522        1.03384        4.23740
C          0.15115       -0.87833        3.71804
H          0.10231       -1.56064        1.68414
H          0.86070       -1.65236        4.02158
H          0.03379        0.02313        5.68260
H         -1.58468        1.77169        4.95395
H         -2.36623        1.85633        2.62344
H         -2.92780        2.24349        0.38824
H         -3.78019        0.89008        1.15718
C         -4.12797        1.04929       -0.94226
C         -5.51469        1.10669       -0.75112
H         -5.90843        1.24028        0.26003
C         -3.64647        0.85117       -2.24160
H         -2.56848        0.80435       -2.41133
C         -6.39468        0.96648       -1.82015
H         -7.47235        1.00914       -1.64374
C         -4.52613        0.70147       -3.31337
H         -4.12571        0.53831       -4.31702
C         -5.90310        0.75748       -3.10870
H         -6.59138        0.63830       -3.94891
H         -1.40331       -2.16820        0.14104
H         -2.36599       -1.58330       -1.21333
C         -3.50899       -1.92059        0.57771
C         -4.71196       -2.00890       -0.13454
H         -4.71739       -1.79094       -1.20545
C         -3.52820       -2.20542        1.95121
H         -2.60143       -2.15557        2.52586
C         -5.90006       -2.35702        0.50426
H         -6.82541       -2.41461       -0.07409
C         -4.71586       -2.55116        2.59123
H         -4.70756       -2.76901        3.66214
C         -5.90843       -2.62500        1.87161
H         -6.83950       -2.89704        2.37477
C          1.07100       -2.59338       -0.90476
C          2.77240       -2.48144        0.79927
C          1.79280       -4.61111        0.20853
C          2.68184       -3.86079        0.97660
C          0.99242       -3.97494       -0.73964
H          0.42605       -2.09066       -1.62906
H          0.29276       -4.55431       -1.34680
H          1.72384       -5.69251        0.34862
H          3.31968       -4.35327        1.71453
H          3.49426       -1.91900        1.39349
H          3.60012        1.16480       -1.81190
H          2.96563       -0.27120       -2.61712
C          4.65912       -0.66809       -1.34187
C          4.77199       -2.02836       -1.66361
H          3.95445       -2.52067       -2.19618
C          5.72281       -0.06044       -0.66087
H          5.67142        1.00472       -0.42044
C          5.90225       -2.75770       -1.30645
H          5.96645       -3.81661       -1.56806
C          6.85447       -0.78904       -0.29799
H          7.67198       -0.29235        0.23025
C          6.94644       -2.14271       -0.61617
H          7.83341       -2.71511       -0.33459
H          3.85976        0.27799        1.13725
H          2.29329        0.04135        1.94625
C          2.66452        2.05977        1.37074
C          1.67692        2.53711        2.24156
H          1.03590        1.82482        2.76503
C          3.47244        2.99063        0.70746
H          4.25144        2.64292        0.02491
C          1.49917        3.90450        2.43971
H          0.72222        4.25259        3.12494
C          3.29564        4.35911        0.90195
H          3.93659        5.06879        0.37323
C          2.30603        4.82208        1.76801
H          2.16694        5.89493        1.92059
