114
Cat231.ts34.5.log	Energy: -1691699.5939521
C          0.02022        0.25317       -3.88289
H          0.22704       -0.61120       -4.51952
H         -0.97679        0.68468       -4.02044
C          1.10548        1.13012       -3.57156
H          2.11393        0.87827       -3.91338
H          0.91541        2.21059       -3.58561
H          0.99117        1.35392       -1.99416
Rh         0.58624       -0.22124       -1.87735
C         -2.18551        1.92350       -0.60791
C         -2.84187       -0.61718       -1.93077
C         -1.59788       -0.59496        0.82285
C          2.70063       -2.02233        0.31431
C          3.83602        0.43151       -0.90910
C          1.96619        0.53864        1.35749
P          2.23398       -0.30990       -0.27171
P         -1.51852        0.20001       -0.86852
C          0.43922       -2.07706       -2.10387
O          0.25966       -3.21754       -2.18977
H         -1.65417        2.26285        0.30101
C         -3.69305        2.04654       -0.37745
H         -4.02936        1.37837        0.42617
H         -4.22167        1.73187       -1.29424
C         -4.08779        3.48883       -0.07593
H         -5.17495        3.55443        0.09402
H         -3.60506        3.80590        0.86625
C         -3.66503        4.41890       -1.20661
H         -3.92102        5.46426       -0.96798
H         -4.23586        4.15975       -2.11713
C         -2.17335        4.29096       -1.49184
H         -1.61139        4.66496       -0.61935
H         -1.88655        4.92593       -2.34639
C         -1.75524        2.84636       -1.74977
H         -2.20791        2.49561       -2.69650
H         -0.66487        2.77700       -1.88028
H         -3.43931        0.19202       -2.37466
H         -2.27363       -1.07338       -2.75199
C         -3.73504       -1.64850       -1.31375
C         -3.29303       -2.97392       -1.18407
H         -2.29114       -3.24709       -1.52658
C         -5.02483       -1.33148       -0.88197
H         -5.37733       -0.30070       -0.97329
C         -4.13219       -3.94234       -0.64164
H         -3.78333       -4.97435       -0.55442
C         -5.88084       -2.29135       -0.33186
C         -7.24833       -1.89483        0.14229
H         -7.17721       -1.16446        0.96456
H         -7.83003       -1.42031       -0.66353
H         -7.81827       -2.76063        0.50753
C         -5.41939       -3.60642       -0.22075
H         -6.07549       -4.37556        0.19639
H         -1.45316       -1.66654        0.61603
H         -0.65556       -0.24207        1.26624
C         -2.71161       -0.38768        1.80954
C         -2.81246        0.80807        2.53401
H         -2.09090        1.60748        2.35844
C         -3.63505       -1.40325        2.07810
H         -3.55819       -2.34718        1.53267
C         -3.83120        0.98850        3.46443
H         -3.90601        1.93268        4.01020
C         -4.65085       -1.24891        3.02836
C         -5.58149       -2.38394        3.34562
H         -5.65957       -3.08353        2.50219
H         -5.21710       -2.95538        4.21586
H         -6.59080       -2.02367        3.59447
C         -4.74965       -0.03005        3.70829
H         -5.54354        0.11465        4.44657
H          1.70351       -2.48384        0.45034
C          3.45683       -2.15122        1.64023
H          2.91998       -1.63859        2.45144
H          4.44079       -1.66146        1.55797
C          3.64321       -3.61958        2.01910
H          4.21499       -3.69146        2.95871
H          2.65288       -4.06581        2.22334
C          4.32758       -4.41530        0.91456
H          4.41238       -5.47612        1.20120
H          5.36126       -4.04332        0.78795
C          3.58167       -4.27355       -0.40691
H          2.58327       -4.73867       -0.32397
H          4.10917       -4.81319       -1.21002
C          3.41604       -2.80750       -0.78846
H          4.41596       -2.37214       -0.94834
H          2.87607       -2.71225       -1.74185
H          4.10840       -0.21363       -1.75736
H          3.54360        1.39378       -1.35479
C          4.98637        0.60493        0.03583
C          5.01173        1.66370        0.95607
H          4.20470        2.40095        0.96041
C          6.05997       -0.29111        0.03295
H          6.07062       -1.10355       -0.69947
C          6.06149        1.78523        1.86103
H          6.06774        2.61293        2.57449
C          7.12180       -0.18844        0.93852
C          8.23924       -1.19092        0.90832
H          7.86148       -2.21145        1.08230
H          8.74367       -1.19694       -0.07089
H          8.99549       -0.97656        1.67611
C          7.10512        0.86080        1.86189
H          7.92291        0.96074        2.58056
H          1.35096       -0.16041        1.94582
H          2.93772        0.59114        1.87834
C          1.31749        1.89421        1.37051
C          0.49819        2.24655        2.45206
H          0.30607        1.51487        3.24143
C          1.54009        2.85270        0.37807
H          2.16280        2.60324       -0.48215
C         -0.06915        3.51473        2.53036
H         -0.70592        3.77305        3.38021
C          0.98428        4.13597        0.44022
C          1.26402        5.12693       -0.65204
H          0.94521        4.73703       -1.63175
H          0.73922        6.07704       -0.48190
H          2.34157        5.34383       -0.72523
C          0.17199        4.45660        1.53103
H         -0.27431        5.45228        1.59920
