106
Cat223.ts34.5.log	Energy: -1781850.8447589
C         -1.41362        2.34093       -2.16273
H         -1.49420        2.13454       -3.23261
H         -2.37119        2.48168       -1.65627
C         -0.26284        3.02390       -1.68895
H          0.54623        3.27301       -2.37892
H         -0.37567        3.75619       -0.88128
H          0.27219        2.13868       -0.43359
Rh        -0.14953        0.82191       -1.27958
C         -0.91826        0.51388        2.17500
O         -3.04810        0.66869        0.63973
O         -1.65224       -1.53898        0.60767
C          2.70391       -1.22981       -1.71923
O          3.13059        1.17694       -0.68807
O          1.91288       -0.51044        0.85473
P          1.87899        0.06714       -0.71267
P         -1.47210        0.12820        0.46731
C         -0.39513       -0.34480       -2.75660
O         -0.57346       -1.07540       -3.62871
H          0.11546        0.12421        2.15743
C         -1.68371       -0.16543        3.30590
H         -1.71570       -1.25348        3.14604
H         -2.72779        0.19310        3.30106
C         -1.04602        0.15822        4.65433
H         -1.61742       -0.31972        5.46658
H         -0.03187       -0.28047        4.68703
C         -0.95065        1.66251        4.88390
H         -0.45199        1.87512        5.84341
H         -1.97079        2.08012        4.96378
C         -0.21939        2.35435        3.73864
H          0.83579        2.02532        3.73062
H         -0.20528        3.44573        3.89339
C         -0.85158        2.02678        2.39011
H         -1.87499        2.43855        2.35066
H         -0.28320        2.50387        1.57623
C         -3.91295        0.85876       -0.40147
C         -3.95381        0.00158       -1.49990
H         -3.28467       -0.85800       -1.54621
C         -4.77380        1.96403       -0.30470
C         -4.68941        2.87340        0.88235
H         -4.80092        2.31401        1.82395
H         -3.70703        3.37131        0.93016
H         -5.46546        3.64969        0.84185
C         -4.85347        0.24934       -2.53415
H         -4.87845       -0.42220       -3.39515
C         -5.67344        2.18110       -1.35060
H         -6.35115        3.03717       -1.29008
C         -5.71543        1.34025       -2.46266
H         -6.42524        1.53628       -3.26921
C         -2.76782       -2.32659        0.58692
C         -3.89627       -2.05169        1.36271
H         -3.91283       -1.16399        1.99107
C         -2.72373       -3.46460       -0.23967
C         -1.50952       -3.75263       -1.06607
H         -1.62115       -4.69982       -1.61095
H         -1.32544       -2.95549       -1.80266
H         -0.60855       -3.81719       -0.43781
C         -4.99986       -2.89975        1.31006
H         -5.88143       -2.66946        1.91279
C         -3.84121       -4.30239       -0.26187
H         -3.81485       -5.18993       -0.90021
C         -4.97717       -4.02932        0.49785
H         -5.83958       -4.69796        0.45424
H          2.42124       -0.90213       -2.73819
C          2.04130       -2.58569       -1.46834
H          0.94634       -2.49034       -1.49273
H          2.30758       -2.92975       -0.45455
C          2.51563       -3.61208       -2.49033
H          2.05598       -4.59097       -2.27851
H          2.16027       -3.31098       -3.49209
C          4.03656       -3.72477       -2.49694
H          4.36588       -4.43637       -3.27127
H          4.37054       -4.14011       -1.52886
C          4.69785       -2.36622       -2.70763
H          4.45803       -1.99661       -3.72132
H          5.79480       -2.46258       -2.66400
C          4.22781       -1.34329       -1.67619
H          4.54890       -1.66483       -0.67310
H          4.68808       -0.36145       -1.85810
C          2.94674        2.46916       -0.27517
C          2.56170        2.75149        1.03429
H          2.39296        1.92745        1.72952
C          3.16873        3.48841       -1.21261
C          3.54592        3.13598       -2.61788
H          3.67072        4.03676       -3.23376
H          4.48398        2.56019       -2.64709
H          2.77381        2.49879       -3.07970
C          2.38676        4.07604        1.43099
H          2.07951        4.29617        2.45593
C          2.99449        4.80741       -0.78621
H          3.15953        5.61728       -1.50211
C          2.60360        5.10640        0.51926
H          2.46968        6.14704        0.82268
C          2.90986       -1.12938        1.56303
C          4.19762       -0.59553        1.64364
H          4.43273        0.31596        1.09479
C          2.55659       -2.29473        2.26515
C          1.15230       -2.81733        2.23685
H          0.54596       -2.34573        3.02821
H          0.64414       -2.59363        1.29043
H          1.13088       -3.90210        2.41214
C          5.16756       -1.24360        2.40407
H          6.17551       -0.82600        2.45920
C          3.55541       -2.92403        3.01531
H          3.30155       -3.83897        3.55791
C          4.85017       -2.41521        3.08734
H          5.60800       -2.93092        3.68114
