86
Cat272.ts34.5.log	Energy: -1882556.0574580
C         -1.00461        0.13958       -3.81171
H         -0.78110       -0.68461       -4.49444
H         -2.07015        0.36717       -3.70906
C         -0.06383        1.20363       -3.71091
H          0.88779        1.14375       -4.24701
H         -0.43930        2.23028       -3.63606
H          0.06019        1.43366       -2.07579
Rh         0.02700       -0.17525       -1.96117
C         -1.81852        1.65417        0.41320
C         -3.49660       -0.03616       -1.18664
C         -1.99749       -1.22026        0.83665
C          1.70865       -1.15865        0.95486
C          3.44601       -0.43550       -1.20410
C          2.13492        1.59079        0.33297
P          1.80078       -0.02854       -0.48402
P         -1.79853        0.05483       -0.47648
C          0.44079       -1.96960       -2.38158
O          0.71935       -3.05971       -2.63764
C         -2.08867        2.81482       -0.33635
H         -2.41739        2.72317       -1.37580
C         -1.38328        1.81934        1.72874
H         -1.16039        0.94333        2.33968
C         -1.92850        4.07660        0.20838
H         -2.13488        4.97728       -0.37320
C         -1.19888        3.08644        2.28670
H         -0.82904        3.16772        3.30892
C         -1.46054        4.22620        1.52380
O         -1.27197        5.49113        1.94466
C         -0.70037        5.70635        3.20737
H          0.31767        5.28523        3.26864
H         -0.64071        6.79356        3.34203
H         -1.31964        5.28180        4.01663
C         -3.72664       -1.01647       -2.16112
H         -2.88996       -1.63351       -2.50114
C         -4.57014        0.75314       -0.75824
H         -4.41545        1.51817        0.00607
C         -4.99583       -1.21232       -2.69601
H         -5.18817       -1.97409       -3.45366
C         -5.84381        0.57676       -1.29397
H         -6.68969        1.18735       -0.97253
C         -6.03960       -0.40622       -2.25625
F         -7.25548       -0.57852       -2.77097
C         -1.38790       -2.46149        0.63789
H         -0.75814       -2.60829       -0.24063
C         -2.81276       -1.04373        1.96357
H         -3.33494       -0.09680        2.11982
C         -1.56698       -3.50270        1.54295
H         -1.09812       -4.47513        1.38718
C         -2.97183       -2.06434        2.89629
H         -3.58952       -1.93599        3.78707
C         -2.33934       -3.28335        2.67358
F         -2.48083       -4.26464        3.56407
C          1.18078       -0.72720        2.18120
H          0.94696        0.32848        2.32607
C          2.00526       -2.51709        0.80897
H          2.41042       -2.88903       -0.13587
C          0.94217       -1.61848        3.21367
H          0.51283       -1.28958        4.16166
C          1.77994       -3.42412        1.84359
H          2.01849       -4.47673        1.68876
C          1.22471       -2.98032        3.04981
O          0.91449       -3.77727        4.08811
C          1.06794       -5.16250        3.95365
H          2.12260       -5.44726        3.79299
H          0.71774       -5.60947        4.89223
H          0.45950       -5.56149        3.12364
C          3.61604       -0.27300       -2.58282
H          2.75059        0.02532       -3.18122
C          4.53670       -0.86177       -0.43459
H          4.41992       -1.02668        0.63890
C          4.84765       -0.50886       -3.18714
H          4.99295       -0.38795       -4.26207
C          5.77188       -1.10981       -1.02472
H          6.62878       -1.45083       -0.44091
C          5.91146       -0.92361       -2.39604
F          7.09119       -1.16078       -2.96377
C          3.07859        1.69822        1.36624
H          3.63293        0.81805        1.69709
C          1.44364        2.73810       -0.05925
H          0.69383        2.66304       -0.84891
C          3.30535        2.91045        2.00700
H          4.02597        3.00274        2.82148
C          1.66542        3.96449        0.56318
H          1.11123        4.85933        0.27631
C          2.58516        4.02810        1.59780
F          2.76967        5.18605        2.23605
