62
Cat204.ts34.5.log	Energy: -1013590.4000995
C          0.78612       -3.69435       -0.00522
H          0.08586       -4.42919       -0.41148
H          1.77046       -3.70571       -0.48331
C          0.70844       -3.39840        1.39185
H         -0.09106       -3.84242        1.99193
H          1.64388       -3.28917        1.95276
H          0.78298       -1.77346        1.43870
Rh        -0.17958       -1.79434        0.12597
C          2.15136        0.95102       -0.24780
C          2.87031       -1.43297       -1.71799
C          0.75947        0.18975       -2.65595
C         -1.82252        1.36204        0.27517
C         -3.07199       -0.75462        1.81450
C         -0.67665        0.44545        2.76285
P         -1.42698       -0.19814        1.21478
P          1.39142       -0.53616       -1.08591
C         -1.60452       -2.32304       -0.98499
O         -2.48196       -2.63498       -1.66923
H          1.26407        1.52631        0.08092
C          3.00721        1.87381       -1.11438
H          2.44479        2.21229       -1.99815
H          3.88240        1.31586       -1.49287
C          3.49360        3.08566       -0.32134
H          4.13288        3.72118       -0.95583
H          2.62100        3.70457       -0.04303
C          4.23842        2.67409        0.94317
H          4.54182        3.56415        1.51801
H          5.17197        2.15447        0.66011
C          3.39332        1.74243        1.80446
H          2.51526        2.29583        2.18611
H          3.96077        1.41461        2.69068
C          2.91339        0.53263        1.00998
H          3.78916       -0.07489        0.71738
H          2.27665       -0.12030        1.62815
H          3.41593       -1.89200       -0.88091
H          2.52147       -2.24432       -2.37351
H          3.55499       -0.78510       -2.28657
H          1.55045        0.62577       -3.28518
H          0.25053       -0.60794       -3.21566
H          0.01323        0.96413       -2.42626
H         -0.82110        1.73338       -0.01610
C         -2.52323        2.47051        1.06062
H         -1.94892        2.73516        1.96188
H         -3.50747        2.10903        1.40830
C         -2.72680        3.71560        0.19931
H         -3.25791        4.49014        0.77636
H         -1.73864        4.14107       -0.05431
C         -3.47963        3.39661       -1.08674
H         -3.58098        4.30156       -1.70750
H         -4.50690        3.07610       -0.83485
C         -2.78917        2.28519       -1.86820
H         -1.80543        2.64655       -2.22119
H         -3.36627        2.03004       -2.77155
C         -2.58589        1.04083       -1.01071
H         -3.57296        0.61708       -0.75239
H         -2.05469        0.26057       -1.57550
H         -3.66307       -1.11987        0.96279
H         -2.91132       -1.60466        2.49283
H         -3.62928        0.03406        2.34349
H         -1.35216        1.10884        3.32277
H         -0.40938       -0.41400        3.39369
H          0.24950        0.98662        2.52005
