78
Cat297.ts34.5.log	Energy: -1519483.8671566
C          1.44506       -0.97770       -3.05726
H          1.02293       -0.68814       -4.02310
H          2.46616       -0.62436       -2.88140
C          1.04532       -2.22234       -2.49419
H          0.28357       -2.82540       -2.99588
H          1.79893       -2.82118       -1.97065
H          0.66382       -1.85306       -0.91635
Rh         0.02081       -0.49605       -1.50987
C          2.99306       -0.15853        0.34064
O          2.33909        1.98580       -0.96957
O          0.89942        1.41053        1.08462
C         -2.79477        0.38978        0.40908
O         -2.69189       -2.11451       -0.26441
O         -0.93024       -1.34458        1.42909
P         -1.59401       -0.91164       -0.01274
P          1.52140        0.72215       -0.28548
C         -1.07843        0.58047       -2.63014
O         -1.74177        1.26216       -3.27802
C          2.76302       -1.34272        1.05641
H          1.73308       -1.67576        1.22312
C          4.30595        0.26845        0.12237
H          4.47878        1.18672       -0.44157
C          3.82626       -2.07951        1.56549
H          3.67083       -2.99924        2.13250
C          5.38009       -0.46842        0.61869
H          6.41398       -0.15713        0.45761
C          5.12396       -1.63018        1.33579
F          6.14602       -2.33742        1.81282
C          1.63588        2.93597       -1.77818
H          0.55057        2.80549       -1.61089
C          1.94115        2.67526       -3.23830
H          1.61220        1.66719       -3.52131
H          3.02380        2.75771       -3.42131
H          1.42083        3.40292       -3.87885
C          2.05144        4.32175       -1.32828
H          1.81388        4.48173       -0.26729
H          3.13595        4.45667       -1.46144
H          1.53232        5.09103       -1.91909
C          1.64930        2.24813        1.97196
H          2.54019        2.61828        1.43431
C          2.08370        1.46295        3.19434
H          2.74318        0.62918        2.92047
H          1.20389        1.05416        3.71336
H          2.62680        2.11623        3.89393
C          0.75797        3.42205        2.32831
H          0.44281        3.96317        1.42419
H         -0.14627        3.06851        2.84775
H          1.28474        4.12661        2.98915
C         -2.29420        1.67600        0.65289
H         -1.21616        1.84875        0.60090
C         -4.17302        0.16167        0.48337
H         -4.56022       -0.83667        0.27423
C         -3.15381        2.71649        0.98707
H         -2.78404        3.72404        1.18663
C         -5.04281        1.19897        0.81086
H         -6.12191        1.04594        0.87095
C         -4.51949        2.46183        1.06059
F         -5.34726        3.45548        1.37459
C         -2.32096       -3.31659       -0.94676
H         -1.22481       -3.43762       -0.87297
C         -2.70636       -3.19934       -2.40705
H         -2.18582       -2.34349       -2.86172
H         -3.79158       -3.04195       -2.50393
H         -2.43525       -4.11341       -2.95711
C         -3.00162       -4.46763       -0.23647
H         -2.69637       -4.51333        0.81868
H         -4.09522       -4.34649       -0.27272
H         -2.74395       -5.42409       -0.71522
C         -1.71687       -1.65050        2.58501
H         -2.76463       -1.80478        2.27160
C         -1.64354       -0.49511        3.56318
H         -2.03662        0.42629        3.11250
H         -0.59826       -0.31701        3.85679
H         -2.22879       -0.71695        4.46829
C         -1.18078       -2.94498        3.16200
H         -1.23125       -3.75126        2.41642
H         -0.12851       -2.82028        3.46145
H         -1.75968       -3.24921        4.04681
