90
Cat282.ts34.5.log	Energy: -2975616.8040487
C          2.15527        2.74268       -2.19758
H          2.38808        2.57062       -3.25146
H          1.54740        3.63167       -2.00152
C          3.09838        2.33067       -1.21738
H          3.99148        1.77226       -1.50953
H          3.24271        2.96222       -0.33428
H          2.15249        1.51137       -0.07384
Rh         1.38060        0.90975       -1.35261
C         -0.34942        3.42876        0.36391
O         -1.81392        2.35226       -1.49432
O         -1.28525        0.85550        0.54636
C          0.11421       -2.25404       -0.45360
O          2.69661       -2.00290       -0.22641
O          1.30177       -0.65477        1.45637
P          1.36814       -0.98653       -0.18193
P         -0.51602        1.86821       -0.54574
C          1.32164        0.02978       -3.04737
O          1.29495       -0.50973       -4.06151
C         -0.87564        4.64824       -0.08613
H         -1.47842        4.66991       -0.99603
C          0.41619        3.41023        1.53356
H          0.83693        2.46389        1.88803
C         -0.64954        5.81511        0.62768
H         -1.05113        6.77347        0.29319
C          0.63764        4.57440        2.26412
H          1.22574        4.52590        3.18061
C          0.10503        5.78934        1.81030
O          0.26664        6.96715        2.43651
C          1.00733        7.01043        3.62556
H          2.05106        6.68588        3.47002
H          1.00678        8.05611        3.95737
H          0.55321        6.38529        4.41413
C         -2.32788        1.47547       -2.41465
C         -3.52453        0.81712       -2.12989
H         -4.04393        1.03166       -1.19526
C         -1.65945        1.23495       -3.61482
H         -0.73781        1.77656       -3.82834
C         -4.03363       -0.11450       -3.02885
H         -4.96498       -0.64118       -2.81470
C         -2.15755        0.29285       -4.51044
H         -1.62599        0.07376       -5.43728
C         -3.33567       -0.38699       -4.20523
Cl        -3.93695       -1.59691       -5.29066
C         -2.54140        0.93881        1.07113
C         -3.23675       -0.26742        1.20453
H         -2.76616       -1.18667        0.85042
C         -3.13647        2.13449        1.47817
H         -2.60144        3.07759        1.37518
C         -4.51653       -0.28429        1.74682
H         -5.06413       -1.22259        1.84890
C         -4.42237        2.11869        2.01362
H         -4.89659        3.04862        2.33141
C         -5.10807        0.91330        2.14895
Cl        -6.70699        0.90127        2.81789
C         -1.00968       -1.92752       -1.22858
H         -1.09281       -0.93068       -1.66639
C          0.21632       -3.54702        0.07369
H          1.09541       -3.83219        0.65335
C         -2.01166       -2.85712       -1.45164
H         -2.87869       -2.61448       -2.06791
C         -0.78919       -4.48496       -0.13472
H         -0.68318       -5.48073        0.29551
C         -1.91558       -4.14197       -0.89715
O         -2.93617       -4.97565       -1.15153
C         -2.89740       -6.27971       -0.63795
H         -2.86204       -6.28416        0.46542
H         -3.82068       -6.77286       -0.96631
H         -2.03271       -6.84607       -1.02509
C          3.96897       -1.51338       -0.29650
C          4.81356       -2.03067       -1.27859
H          4.42342       -2.78698       -1.96165
C          4.43470       -0.53357        0.58399
H          3.76766       -0.12987        1.34712
C          6.12380       -1.57622       -1.38253
H          6.79168       -1.97308       -2.14860
C          5.74409       -0.07211        0.47746
H          6.11838        0.69468        1.15755
C          6.58342       -0.59431       -0.50463
Cl         8.21297       -0.01834       -0.63696
C          1.02811       -1.59322        2.41344
C          2.03176       -2.43577        2.89317
H          3.04290       -2.35707        2.49076
C         -0.26730       -1.67790        2.92201
H         -1.02903       -1.00068        2.53549
C          1.73143       -3.38093        3.87069
H          2.50391       -4.04997        4.25310
C         -0.57010       -2.61904        3.89979
H         -1.58135       -2.69675        4.30210
C          0.43059       -3.47226        4.36459
Cl         0.05487       -4.65586        5.57407
