104
Cat351.ts34.5.log	Energy: -1452743.4396509
C          0.68764       -2.85173       -1.97123
H          0.80027       -3.86011       -1.56370
H         -0.11565       -2.75779       -2.70980
C          1.86735       -2.06215       -2.14570
H          2.82951       -2.43817       -1.78579
H          1.96824       -1.47008       -3.06311
H          1.41197       -0.60721       -1.56772
Rh         0.67868       -1.43010       -0.37869
C         -1.08125        1.42169       -1.45623
C         -2.41169       -1.01718       -2.15087
C         -2.46988       -0.08581        0.57794
C          0.46319        0.72716        2.36211
C          3.04894       -0.43297        2.06143
C          2.15808        1.71147        0.28934
P          1.60343        0.12694        1.04989
P         -1.31825       -0.29204       -0.84564
C          0.41594       -2.74754        0.94293
O          0.23372       -3.55521        1.75011
C         -1.36820        2.56372       -0.70014
H         -1.85360        2.47269        0.27284
C         -0.43820        1.60275       -2.69158
H         -0.16942        0.72952       -3.29311
C         -1.01768        3.83469       -1.15935
H         -1.24754        4.70761       -0.54131
C         -0.10758        2.87005       -3.15239
H          0.39143        2.97643       -4.12025
C         -0.38211        4.01550       -2.38971
C          0.02949        5.37550       -2.87096
H          1.12136        5.50964       -2.78676
H         -0.23272        5.52505       -3.92943
H         -0.44759        6.17349       -2.28485
H         -3.24306       -0.32875       -2.37548
H         -1.80106       -1.08712       -3.06678
C         -2.92022       -2.39836       -1.76065
H         -2.07578       -2.99639       -1.37616
H         -3.62923       -2.30789       -0.91914
C         -3.59646       -3.13847       -2.90577
H         -2.88133       -3.24249       -3.74256
H         -4.43030       -2.52887       -3.29982
C         -4.11577       -4.51481       -2.51432
H         -3.27838       -5.11460       -2.11630
H         -4.82802       -4.40720       -1.67696
C         -4.78153       -5.25908       -3.66034
H         -5.14577       -6.24900       -3.34617
H         -4.08075       -5.41305       -4.49679
H         -5.64367       -4.69719       -4.05484
H         -2.53271       -1.08265        1.04397
H         -1.92070        0.52380        1.31224
C         -3.85827        0.48959        0.33233
H         -3.80075        1.36758       -0.33356
H         -4.48364       -0.24749       -0.19997
C         -4.53919        0.89134        1.63443
H         -3.90938        1.64217        2.14647
H         -4.56671        0.02035        2.31483
C         -5.94535        1.44532        1.46114
H         -5.91219        2.30675        0.77060
H         -6.57623        0.68833        0.96242
C         -6.58811        1.86485        2.77351
H         -7.60307        2.26347        2.62436
H         -5.99465        2.64642        3.27563
H         -6.66439        1.01403        3.46999
C         -0.10758       -0.21844        3.22863
H          0.18705       -1.26836        3.16168
C          0.03449        2.05404        2.47151
H          0.45048        2.82660        1.82417
C         -1.07925        0.14777        4.15077
H         -1.50905       -0.61505        4.80608
C         -0.95400        2.41366        3.38899
H         -1.27899        3.45685        3.44198
C         -1.53771        1.47002        4.23764
C         -2.63863        1.84342        5.18552
H         -2.67931        2.92936        5.35094
H         -3.61913        1.53189        4.78730
H         -2.51461        1.35130        6.16172
H          3.50720        0.44600        2.54721
H          2.62021       -1.05250        2.86717
C          4.06816       -1.25060        1.28228
H          3.52800       -2.04836        0.74294
H          4.53700       -0.62869        0.50091
C          5.15220       -1.85593        2.16212
H          4.67978       -2.48545        2.93829
H          5.68062       -1.05350        2.70921
C          6.16330       -2.68783        1.38516
H          5.62796       -3.48370        0.83787
H          6.63046       -2.05586        0.60883
C          7.24206       -3.30403        2.26101
H          7.95609       -3.89829        1.67074
H          6.80525       -3.96990        3.02266
H          7.81554       -2.52853        2.79423
H          1.23643        2.18802       -0.08306
H          2.56427        2.35775        1.08626
C          3.14116        1.59947       -0.86505
H          4.11837        1.23098       -0.50990
H          2.77030        0.84327       -1.57713
C          3.32521        2.92418       -1.59196
H          3.73807        3.67782       -0.89649
H          2.33073        3.29969       -1.89027
C          4.21288        2.82753       -2.82386
H          5.21199        2.45982       -2.52987
H          3.80034        2.05882       -3.50142
C          4.34863        4.14520       -3.56962
H          4.99327        4.04988       -4.45654
H          4.78273        4.92689       -2.92539
H          3.36621        4.51084       -3.91104
