116
Cat393.ts34.5.log	Energy: -2113747.3293125
C          0.26919        0.99163       -3.33093
H          1.27336        0.77107       -3.70323
H         -0.56130        0.60124       -3.92462
C          0.06284        2.08815       -2.48281
H          0.91001        2.72697       -2.23097
H         -0.91315        2.58275       -2.45046
H          0.03951        1.70739       -0.78923
Rh         0.07278        0.18438       -1.29213
C         -2.45736        1.97259       -0.06736
C         -3.61129       -0.53949       -0.94720
C         -2.19521       -0.73628        1.36472
C          1.63704       -1.23426        1.26539
C          3.47650       -0.55146       -1.07711
C          2.96959        1.31594        0.89415
P          2.02753        0.01409       -0.03788
P         -2.03660        0.18024       -0.26061
C          0.16170       -1.57568       -1.91629
O          0.25620       -2.65040       -2.33173
C         -1.81409        2.70499        0.94236
H         -1.15603        2.18365        1.63317
C         -3.18158        2.68230       -1.05132
C         -3.73965        2.06190       -2.30327
H         -4.69520        1.54491       -2.13046
H         -3.04827        1.32031       -2.73042
H         -3.91221        2.84228       -3.05866
C         -1.98785        4.07474        1.08309
H         -1.48881        4.60335        1.89981
C         -3.33758        4.06998       -0.89557
H         -3.90921        4.61240       -1.65433
C         -2.77962        4.76749        0.16751
H         -2.93133        5.84580        0.26000
C         -4.81156       -0.38313       -0.22569
O         -4.74829        0.42038        0.84728
C         -5.86062        0.58649        1.67276
H         -5.54620        1.26732        2.47331
H         -6.71058        1.04019        1.13324
H         -6.18622       -0.36967        2.11877
C         -3.65469       -1.30080       -2.13014
O         -2.53041       -1.35422       -2.86255
C         -2.49057       -2.11901       -4.03144
H         -1.46955       -2.03062       -4.42240
H         -3.20485       -1.74970       -4.78837
H         -2.69958       -3.18468       -3.83224
C         -4.83615       -1.93867       -2.53635
H         -4.85930       -2.53703       -3.44583
C         -5.99776       -1.01194       -0.62686
H         -6.91633       -0.89077       -0.05413
C         -5.98986       -1.79274       -1.77588
H         -6.90907       -2.29065       -2.09431
C         -2.03746       -2.13516        1.22392
O         -1.77473       -2.57208       -0.02073
C         -1.80214       -3.94153       -0.30273
H         -1.60123       -4.03662       -1.37593
H         -1.01755       -4.48489        0.24993
H         -2.78757       -4.37951       -0.06730
C         -2.51625       -0.26577        2.65401
O         -2.74011        1.05442        2.80194
C         -2.96149        1.60023        4.06454
H         -3.05055        2.68531        3.91674
H         -2.12507        1.39979        4.75806
H         -3.89444        1.22534        4.52349
C         -2.63723       -1.14034        3.74310
H         -2.88119       -0.75474        4.73201
C         -2.18945       -3.01496        2.29980
H         -2.05908       -4.08603        2.15877
C         -2.47981       -2.50656        3.55602
H         -2.58531       -3.18532        4.40559
C          1.56863       -2.58917        0.91068
H          1.75551       -2.88287       -0.12010
C          1.21389       -0.85722        2.55932
C          0.98822        0.56872        2.97681
H          0.59806        1.16444        2.13875
H          1.90354        1.06731        3.33011
H          0.24875        0.60008        3.79047
C          1.27156       -3.57346        1.84470
H          1.25562       -4.62347        1.53906
C          0.92192       -1.86590        3.48743
H          0.60348       -1.56884        4.49035
C          0.98548       -3.21379        3.16042
H          0.75267       -3.97367        3.91019
C          4.23991       -1.73780       -1.03607
O          4.04934       -2.57843       -0.00317
C          4.61449       -3.85365       -0.01276
H          4.20543       -4.37425        0.86411
H          4.34661       -4.42012       -0.92216
H          5.71579       -3.82130        0.07178
C          3.81981        0.38199       -2.08496
O          3.17506        1.56499       -2.02733
C          3.57462        2.61678       -2.85544
H          3.00107        3.49655       -2.53732
H          3.35075        2.41468       -3.91756
H          4.65132        2.83328       -2.74649
C          4.77935        0.11038       -3.06420
H          5.00347        0.84030       -3.84069
C          5.19432       -2.02308       -2.02582
H          5.75609       -2.95547       -1.99053
C          5.44776       -1.10713       -3.03539
H          6.19304       -1.33602       -3.80066
C          4.05454        0.90630        1.69878
O          4.29706       -0.41012        1.71818
C          5.26870       -0.94646        2.56314
H          5.22348       -2.03309        2.42265
H          6.28172       -0.59039        2.30475
H          5.06361       -0.71158        3.62209
C          2.68596        2.69443        0.83861
O          1.65030        3.08768        0.07823
C          1.28441        4.43688        0.03590
H          0.38055        4.49346       -0.58312
H          2.07862        5.06254       -0.40999
H          1.04177        4.82889        1.03792
C          3.44915        3.61809        1.56954
H          3.22335        4.68204        1.52255
C          4.81523        1.82218        2.43675
H          5.64539        1.48597        3.05660
C          4.50002        3.17244        2.36059
H          5.08901        3.89664        2.92878
