62
Cat321.ts34.5.log	Energy: -1684286.8281152
C         -4.05221        1.32078       -0.60296
H         -4.88029        0.97520        0.02146
H         -3.90604        2.40523       -0.59290
C         -3.77845        0.60570       -1.80880
H         -4.34528       -0.30097       -2.03906
H         -3.51803        1.18074       -2.70471
H         -2.16857        0.36949       -1.78405
Rh        -2.33346        0.12093       -0.17874
C          0.92008        1.59839       -0.40695
C         -1.18027        3.48514       -0.56956
C         -0.52225        2.29976        1.98064
C          0.60735       -1.70158        0.38093
C         -1.72189       -3.31970        0.22502
C         -0.62544       -2.18475       -2.21098
P         -1.02430       -1.74848       -0.46046
P         -0.79152        1.84539        0.21015
C         -3.01353       -0.50844        1.45476
O         -3.38288       -0.90812        2.47464
C          2.06472        1.66358        0.39436
H          1.98589        1.89056        1.45826
C          1.07965        1.28625       -1.76550
H          0.19360        1.20686       -2.40270
C          3.32983        1.41378       -0.13368
H          4.21277        1.42898        0.50752
C          2.33583        1.05122       -2.31201
H          2.45356        0.80600       -3.36905
C          3.45734        1.10423       -1.48360
Cl         5.02022        0.72422       -2.13183
H         -2.20170        3.74106       -0.24341
C         -0.21609        4.62752       -0.30296
H          0.81074        4.36458       -0.60045
H         -0.19496        4.90396        0.76225
H         -1.26028        3.27585       -1.64943
H         -0.50776        5.52805       -0.86600
H          0.26067        3.07124        2.06373
C         -1.80164        2.75833        2.66290
H         -2.59475        2.00231        2.56839
H         -2.18145        3.69561        2.22714
H         -0.13398        1.38938        2.46548
H         -1.62966        2.94032        3.73447
C          0.61199       -1.45626        1.76212
H         -0.33568       -1.33631        2.29494
C          1.83612       -1.80744       -0.27762
H          1.87883       -1.96826       -1.35522
C          1.80327       -1.32795        2.46757
H          1.80153       -1.12961        3.54072
C          3.03821       -1.67366        0.41323
H          3.99151       -1.72389       -0.11527
C          3.01382       -1.42922        1.78228
Cl         4.50446       -1.18892        2.63368
H         -1.80392       -3.15873        1.31180
C         -3.08108       -3.66671       -0.35933
H         -3.02327       -3.87071       -1.44017
H         -3.78579       -2.83313       -0.21698
H         -0.99084       -4.13115        0.07956
H         -3.49948       -4.56198        0.12508
H          0.06558       -1.39816       -2.55660
C         -0.08791       -3.57887       -2.49786
H         -0.84334       -4.35168       -2.29394
H          0.79873       -3.82165       -1.89413
H         -1.56254       -2.00687       -2.76152
H          0.19572       -3.67335       -3.55760
