94
Cat346.ts34.5.log	Energy: -2353947.9334725
C         -0.95902        0.59475       -3.69745
H         -0.89258       -0.21234       -4.43065
H         -1.96941        0.98182       -3.53829
C          0.15406        1.45901       -3.52801
H          1.08890        1.27307       -4.06363
H         -0.03005        2.52060       -3.33056
H          0.40708        1.50842       -1.88813
Rh         0.03158       -0.06389       -1.88951
C         -2.04633        1.95935        0.25016
O         -3.25543       -0.00909       -0.92633
O         -1.57052       -0.59867        0.95661
C          2.18716       -1.87176        0.24992
O          3.30064        0.09945       -1.07669
O          1.66017        0.71262        0.81134
P          1.77335       -0.29034       -0.52667
P         -1.68636        0.31690       -0.45111
C          0.05756       -1.88154       -2.46938
O          0.07349       -2.98099       -2.80153
C         -0.95159        2.76152        0.59218
H          0.06208        2.39461        0.40956
C         -3.34299        2.41807        0.50539
H         -4.19655        1.79135        0.24293
C         -1.14342        4.00157        1.19258
H         -0.29496        4.62819        1.47199
C         -3.54572        3.66038        1.09732
H         -4.55307        4.02604        1.30252
C         -2.44321        4.44285        1.43995
Cl        -2.69153        5.98660        2.18333
C         -3.57678       -1.09607       -1.69088
C         -3.05098       -2.35971       -1.42646
H         -2.35692       -2.48768       -0.59371
C         -4.47365       -0.90564       -2.74281
H         -4.87100        0.09406       -2.92679
C         -3.39793       -3.45641       -2.22500
C         -2.78219       -4.79823       -1.95803
H         -1.71840       -4.79352       -2.24488
H         -2.83030       -5.05597       -0.88891
H         -3.28423       -5.59386       -2.52572
C         -4.83213       -1.99572       -3.52799
H         -5.53498       -1.85758       -4.35319
C         -4.29709       -3.25972       -3.27690
H         -4.58161       -4.10624       -3.90673
C         -2.39911       -0.39608        2.03491
C         -3.65207       -1.00270        2.07083
H         -3.96373       -1.62646        1.23026
C         -1.96534        0.41458        3.08395
H         -0.98688        0.89317        3.02255
C         -4.50250       -0.80737        3.16523
C         -5.84230       -1.48329        3.21058
H         -6.32759       -1.47945        2.22330
H         -5.74072       -2.53749        3.51768
H         -6.51652       -0.99422        3.92777
C         -2.80820        0.61144        4.17310
H         -2.48341        1.25084        4.99733
C         -4.06540        0.00989        4.21348
H         -4.72075        0.17876        5.07189
C          1.12059       -2.63887        0.73371
H          0.09491       -2.28189        0.60357
C          3.50113       -2.31083        0.43803
H          4.32997       -1.70898        0.06252
C          1.36165       -3.83206        1.40539
H          0.53845       -4.43481        1.79164
C          3.75026       -3.50556        1.10503
H          4.77071       -3.85927        1.25965
C          2.67794       -4.25664        1.58621
Cl         2.98609       -5.74016        2.42217
C          3.47252        1.12531       -1.96762
C          3.04814        2.41694       -1.66090
H          2.57940        2.60710       -0.69307
C          4.06849        0.84407       -3.19627
H          4.37880       -0.17904       -3.41380
C          3.19584        3.45378       -2.58962
C          2.71652        4.83535       -2.25015
H          1.67928        4.81663       -1.88025
H          3.33391        5.28524       -1.45581
H          2.75558        5.50226       -3.12242
C          4.23124        1.87531       -4.11583
H          4.69378        1.66694       -5.08355
C          3.79338        3.16717       -3.82075
H          3.91474        3.96415       -4.55862
C          2.46417        0.55850        1.91686
C          3.75174        1.08803        1.92690
H          4.11959        1.60909        1.04077
C          1.96166       -0.12809        3.02174
H          0.95498       -0.54605        2.97790
C          4.56901        0.93856        3.05375
C          5.94873        1.53025        3.06947
H          6.46268        1.37633        2.10887
H          5.90876        2.61810        3.24492
H          6.56699        1.08980        3.86421
C          2.77133       -0.27904        4.14263
H          2.39274       -0.82164        5.01200
C          4.06292        0.24627        4.15897
H          4.69126        0.11454        5.04360
