90
Cat305.ts34.5.log	Energy: -1712993.8414940
C          1.18910        0.38695        3.67190
H          0.89018       -0.32201        4.44851
H          2.27103        0.48083        3.53386
C          0.36199        1.52515        3.44620
H         -0.58744        1.62531        3.98034
H          0.84262        2.49104        3.25267
H          0.20775        1.57501        1.81072
Rh         0.09485       -0.03891        1.88259
C          1.99610        1.24561       -0.78704
C          3.57402       -0.38884        0.95048
C          1.72707       -1.63567       -0.80958
C         -1.95173       -1.26660       -0.63565
C         -3.35843        0.39509        1.25434
C         -1.69282        1.54444       -0.76707
P         -1.71343        0.17509        0.46457
P          1.85355       -0.19983        0.33426
C         -0.41258       -1.76348        2.46008
O         -0.71992       -2.82809        2.78324
C          1.73217        1.20018       -2.15838
H          1.53790        0.24086       -2.64208
C          2.27893        2.48846       -0.19887
H          2.47779        2.54345        0.87520
C          1.71222        2.36621       -2.92385
H          1.47458        2.34654       -3.98866
C          2.30595        3.65189       -0.95590
H          2.53428        4.62144       -0.51003
C          1.99837        3.57525       -2.31049
F          1.95940        4.70082       -3.02914
C          3.76961       -1.27314        2.01852
H          2.90617       -1.77753        2.46148
C          4.67779        0.26758        0.39605
H          4.53194        0.95721       -0.43967
C          5.05352       -1.50158        2.50419
H          5.20523       -2.19844        3.33222
C          5.97255        0.05805        0.88531
C          7.14283        0.79532        0.30067
H          8.03515        0.15447        0.24166
H          6.92043        1.16817       -0.70927
H          7.40929        1.66678        0.92184
C          6.14519       -0.84011        1.94448
H          7.14963       -1.02171        2.33737
C          2.75547       -2.10345       -1.54513
H          3.73167       -1.61246       -1.49161
C          0.40480       -2.33390       -0.82379
H          0.15918       -2.64142        0.20341
C          2.62559       -3.27679       -2.40853
H          3.51529       -3.61881       -2.94365
C          0.23354       -3.46972       -1.85821
C         -0.82961       -4.50337       -1.41397
H         -0.95714       -4.59405       -0.32480
H         -3.59121       -4.12572       -0.85198
H         -0.69141       -5.50187       -1.85216
C          1.45775       -3.92836       -2.55410
H          1.38570       -4.80409       -3.20685
C         -3.02372       -2.07248       -0.60249
H         -3.85353       -1.83131        0.06944
C         -0.76389       -1.55350       -1.49822
H         -0.39388       -0.62428       -1.95519
C         -3.18928       -3.29316       -1.45455
H         -3.95308       -3.09150       -2.22708
C         -0.91639       -2.66412       -2.56155
H         -0.90770       -2.36897       -3.61945
C         -1.93294       -3.74066       -2.17142
F         -2.31256       -4.47085       -3.28599
C         -3.50292        0.08246        2.60697
H         -2.62565       -0.25154        3.16827
C         -4.46816        0.85037        0.53018
H         -4.35429        1.11188       -0.52519
C         -4.75069        0.20813        3.21776
H         -4.86507       -0.04074        4.27567
C         -5.72128        0.98769        1.13058
C         -6.90413        1.48649        0.35177
H         -7.27277        2.44210        0.75794
H         -6.65014        1.64754       -0.70515
H         -7.74190        0.77280        0.39531
C         -5.84656        0.65539        2.48738
H         -6.81980        0.75674        2.97657
C         -2.19624        1.37981       -2.06225
H         -2.59965        0.41303       -2.37383
C         -1.19761        2.79530       -0.38628
H         -0.78831        2.91846        0.62016
C         -2.18636        2.45067       -2.95492
H         -2.56849        2.31433       -3.96976
C         -1.20468        3.88447       -1.26061
C         -0.70081        5.23137       -0.83240
H         -1.52532        5.96062       -0.77679
H         -0.22611        5.18565        0.15727
H          0.03547        5.62367       -1.55001
C         -1.69586        3.69012       -2.55828
H         -1.68783        4.52417       -3.26561
