100
Cat366.ts34.5.log	Energy: -1826603.7849798
C          1.45784       -3.36326        1.41270
H          1.71342       -3.46038        2.47095
H          0.68428       -4.05441        1.06278
C          2.47305       -2.95699        0.50309
H          3.45889       -2.65900        0.86977
H          2.49378       -3.41212       -0.49299
H          1.72401       -1.75527       -0.41774
Rh         1.08140       -1.28078        0.98162
C         -1.12509       -2.96426       -1.15001
O         -2.33078       -2.02972        0.96099
O         -1.51322       -0.28506       -0.76580
C          0.53024        2.19748        0.77201
O          3.00494        1.44439        0.43172
O          1.36908        0.80520       -1.45039
P          1.49379        0.77055        0.21103
P         -0.97156       -1.62583        0.07108
C          1.17878       -0.76726        2.81828
O          1.25506       -0.44555        3.91924
C         -0.42544       -2.81813       -2.35581
H          0.12046       -1.89042       -2.55408
C         -1.81048       -4.15435       -0.89655
H         -2.36296       -4.26793        0.03839
C         -0.43671       -3.83923       -3.29704
H          0.09886       -3.70625       -4.24138
C         -1.80448       -5.17735       -1.84401
H         -2.34749       -6.10385       -1.63717
C         -1.12285       -5.03939       -3.05703
C         -1.10474       -6.14438       -4.07187
H         -1.33967       -5.76686       -5.07889
H         -0.10825       -6.61267       -4.12738
H         -1.82954       -6.93243       -3.82443
C         -2.61440       -1.32610        2.10668
C         -3.58440       -0.32549        2.07315
H         -4.11291       -0.12427        1.14000
C         -1.94134       -1.61050        3.29327
H         -1.19515       -2.40595        3.30257
C         -3.85603        0.40343        3.22841
H         -4.62123        1.18444        3.19590
C         -2.21564       -0.86396        4.43537
H         -1.66638       -1.07953        5.35549
C         -3.16717        0.16278        4.42331
C         -3.41540        1.00103        5.64369
H         -4.43296        1.41810        5.64805
H         -2.71111        1.84915        5.68630
H         -3.27959        0.42051        6.56780
C         -2.77015        0.00244       -1.22015
C         -3.16072        1.34272       -1.15425
H         -2.47132        2.06933       -0.72008
C         -3.65203       -0.95085       -1.72904
H         -3.36223       -1.99989       -1.77226
C         -4.41971        1.72262       -1.60594
H         -4.71142        2.77495       -1.54257
C         -4.91205       -0.55056       -2.16984
H         -5.59680       -1.30856       -2.56056
C         -5.32254        0.78568       -2.12441
C         -6.67040        1.20575       -2.63527
H         -6.61531        1.52250       -3.69056
H         -7.07255        2.05456       -2.06252
H         -7.39741        0.38261       -2.57947
C          0.91875        3.52233        0.52270
H          1.85302        3.72753       -0.00156
C         -0.65516        1.95721        1.47161
H         -0.95976        0.93141        1.68862
C          0.11468        4.57345        0.94289
H          0.42484        5.60103        0.73327
C         -1.45151        3.01870        1.89378
H         -2.37569        2.80296        2.43607
C         -1.08554        4.34189        1.63177
C         -1.93453        5.48992        2.09166
H         -2.90924        5.14658        2.46530
H         -1.43938        6.04364        2.90614
H         -2.11211        6.20797        1.27624
C          4.13156        0.66702        0.38580
C          4.99657        0.69593        1.47841
H          4.73879        1.32067        2.33542
C          4.42379       -0.14017       -0.71384
H          3.73537       -0.17127       -1.55997
C          6.15239       -0.07742        1.46418
H          6.82127       -0.05173        2.32912
C          5.58350       -0.91275       -0.70897
H          5.80088       -1.54803       -1.57220
C          6.46955       -0.89734        0.37286
C          7.73102       -1.71163        0.36032
H          7.93796       -2.14928        1.34847
H          8.60269       -1.09174        0.09119
H          7.67369       -2.53183       -0.36950
C          1.31919        1.95501       -2.19681
C          2.48066        2.66214       -2.50249
H          3.44255        2.31148       -2.12513
C          0.08436        2.39420       -2.67049
H         -0.80823        1.81971       -2.42105
C          2.39236        3.82189       -3.27023
H          3.30569        4.37746       -3.50087
C          0.01496        3.55214       -3.43703
H         -0.95976        3.89270       -3.79787
C          1.16399        4.29049       -3.74916
C          1.07913        5.52722       -4.59642
H          1.96603        6.16451       -4.47008
H          0.19045        6.12612       -4.34676
H          1.00730        5.27159       -5.66692
