94
Cat310.ts34.5.log	Energy: -1901787.3529494
C          0.04194       -0.00004       -3.71271
H          0.71826       -0.73064       -4.16451
H         -0.99030       -0.02724       -4.06988
C          0.55394        1.18691       -3.17272
H          1.62564        1.39648       -3.23845
H         -0.08206        2.07687       -3.14127
H          0.63207        1.21243       -1.49648
Rh         0.06302       -0.30058       -1.49906
C         -1.58776        2.33461        0.15410
O         -3.24917        0.91705       -1.20164
O         -2.18763       -0.28113        0.81805
C          1.60314       -1.99129        1.14644
O          3.35021       -1.25801       -0.58172
O          2.19478        0.66266        0.67807
P          1.81317       -0.73758       -0.15901
P         -1.74875        0.64097       -0.50561
C         -0.51748       -2.09826       -1.54338
O         -0.87479       -3.18710       -1.52207
C         -0.39023        2.65106        0.81007
H          0.41236        1.91069        0.87223
C         -2.59455        3.30261        0.05351
H         -3.52602        3.05530       -0.45577
C         -0.20545        3.90786        1.37757
H          0.71824        4.16851        1.89762
C         -2.41311        4.56697        0.60571
H         -3.18213        5.33844        0.53557
C         -1.22200        4.85039        1.26530
F         -1.04907        6.05671        1.79692
C         -4.06715       -0.03440       -1.75269
C         -3.58570       -1.00281       -2.63200
H         -2.52676       -1.00557       -2.88770
C         -5.42910        0.03021       -1.41250
C         -5.94134        1.11204       -0.51351
H         -5.38734        1.14419        0.43569
H         -5.83029        2.10143       -0.98636
H         -7.00533        0.96147       -0.28758
C         -4.45349       -1.95956       -3.15493
H         -4.06644       -2.72446       -3.83177
C         -6.27537       -0.94049       -1.95492
H         -7.33652       -0.91096       -1.69288
C         -5.80161       -1.93535       -2.80951
H         -6.48822       -2.68443       -3.20978
C         -3.31075       -0.17239        1.60009
C         -3.52817        0.94476        2.40552
H         -2.80192        1.75726        2.40409
C         -4.18767       -1.27012        1.60955
C         -3.89464       -2.48752        0.78852
H         -2.87739       -2.86156        0.97918
H         -4.61066       -3.28967        1.01115
H         -3.95144       -2.27120       -0.28918
C         -4.66884        1.00620        3.20422
H         -4.84307        1.88458        3.82975
C         -5.32108       -1.17907        2.42263
H         -6.01982       -2.01980        2.44011
C         -5.57294       -0.05308        3.20540
H         -6.46966       -0.01106        3.82761
C          2.61558       -2.87518        1.54153
H          3.58157       -2.84514        1.03726
C          0.35998       -2.03475        1.79087
H         -0.44443       -1.36629        1.47193
C          2.39353       -3.78249        2.57239
H          3.16556       -4.48371        2.89438
C          0.13201       -2.93221        2.82928
H         -0.82984       -2.97688        3.34345
C          1.15495       -3.79523        3.20544
F          0.94365       -4.66068        4.19246
C          4.13575       -0.73362       -1.57084
C          3.62374       -0.44067       -2.83366
H          2.57503       -0.66208       -3.03041
C          5.49658       -0.54835       -1.27343
C          6.05462       -0.97149        0.04983
H          5.45963       -0.58247        0.88709
H          6.05230       -2.07053        0.13782
H          7.08995       -0.62504        0.16789
C          4.45122        0.11446       -3.80778
H          4.04345        0.34790       -4.79428
C          6.30189        0.00988       -2.27042
H          7.36084        0.17362       -2.05262
C          5.79251        0.35571       -3.52151
H          6.44829        0.79555       -4.27602
C          3.31537        0.93278        1.41757
C          3.55315        0.29593        2.63446
H          2.84717       -0.45368        2.99281
C          4.17127        1.93407        0.92892
C          3.86511        2.62498       -0.36452
H          3.94690        1.93153       -1.21680
H          2.83647        3.01733       -0.37040
H          4.56024        3.45715       -0.53839
C          4.68732        0.62849        3.37338
H          4.87913        0.12590        4.32409
C          5.29591        2.25093        1.69558
H          5.97679        3.02550        1.33244
C          5.56329        1.60334        2.90127
H          6.45280        1.86878        3.47682
