82
Cat340.ts34.5.log	Energy: -3408625.6637257
C          0.81447       -3.71210        0.77426
H          0.86123       -4.45086       -0.02916
H          1.75871       -3.55525        1.30304
C         -0.40986       -3.53397        1.46908
H         -1.30812       -4.06944        1.15012
H         -0.38029       -3.33451        2.54557
H         -0.66383       -1.89733        1.47288
Rh        -0.06010       -1.90157       -0.02864
C          1.71830        0.30273        2.22056
O          3.19397       -0.96168        0.50578
O          1.64543        0.90373       -0.40562
C         -1.90836        0.24730       -2.14791
O         -3.31609       -1.09068       -0.38648
O         -1.80465        0.79234        0.49241
P         -1.74397       -0.54132       -0.52853
P          1.59481       -0.46932        0.57731
C          0.17870       -2.50308       -1.82653
O          0.32701       -2.85135       -2.90920
C          0.52070        0.66463        2.84778
H         -0.43196        0.44083        2.36015
C          2.93832        0.60614        2.83583
H          3.87312        0.32638        2.34782
C          0.53604        1.33597        4.06611
H         -0.39257        1.63065        4.55732
C          2.96364        1.26909        4.05781
H          3.90964        1.51310        4.54366
C          1.76080        1.63424        4.66332
Cl         1.78865        2.46799        6.17813
C          3.66157       -1.78479       -0.47671
C          4.49296       -2.84018       -0.09990
H          4.72585       -2.97672        0.95771
C          3.34757       -1.58691       -1.82271
H          2.70166       -0.75789       -2.11464
C          5.00697       -3.70083       -1.06308
H          5.65701       -4.52981       -0.77905
C          3.85083       -2.45486       -2.78817
H          3.59704       -2.31776       -3.84012
C          4.67782       -3.50819       -2.40546
Cl         5.30552       -4.58886       -3.60508
C          2.44336        1.98143       -0.11802
C          3.77096        2.00636       -0.54421
H          4.17465        1.15949       -1.10155
C          1.91343        3.05489        0.59900
H          0.87808        3.00961        0.94049
C          4.57133        3.10750       -0.25237
H          5.61161        3.14104       -0.57966
C          2.70983        4.15636        0.89297
H          2.30845        4.99877        1.45816
C          4.03800        4.17581        0.46759
Cl         5.03596        5.54218        0.83820
C         -3.14301        0.46924       -2.76692
H         -4.05736        0.10361       -2.29732
C         -0.73417        0.71649       -2.74886
H          0.22757        0.55877       -2.25265
C         -3.20647        1.15865       -3.97271
H         -4.16317        1.34063       -4.46453
C         -0.79012        1.41029       -3.95250
H          0.11787        1.78561       -4.42668
C         -2.02894        1.62799       -4.55588
Cl        -2.10670        2.49311       -6.05027
C         -3.64217       -2.02238        0.55895
C         -4.11036       -3.26588        0.13741
H         -4.19769       -3.46279       -0.93230
C         -3.50559       -1.74648        1.92057
H         -3.12898       -0.77292        2.23893
C         -4.44634       -4.23686        1.07543
H         -4.81208       -5.21469        0.75833
C         -3.83437       -2.71801        2.86187
H         -3.72797       -2.51679        3.92895
C         -4.30163       -3.96023        2.43540
Cl        -4.70481       -5.17223        3.60455
C         -2.56733        1.89698        0.20713
C         -3.92170        1.92855        0.53658
H         -4.38323        1.06147        1.01093
C         -1.96591        2.99299       -0.41188
H         -0.90846        2.94043       -0.67549
C         -4.67780        3.06104        0.24600
H         -5.73877        3.10078        0.49737
C         -2.71808        4.12527       -0.70464
H         -2.26071        4.98638       -1.19402
C         -4.07336        4.15276       -0.37567
Cl        -5.01574        5.55798       -0.74433
