54
Cat31.ts34.5.log	Energy: -916485.2455883
C          1.16467       -2.68596        0.73676
H          1.04586       -3.49045        0.00585
H          2.19884       -2.52218        1.05627
C          0.11972       -2.48963        1.69244
H         -0.79375       -3.08749        1.62420
H          0.40080       -2.27429        2.73008
H         -0.11395       -0.88886        1.68135
Rh         0.08973       -0.96279        0.06741
C          1.75912        1.96074        1.43142
C          3.52935       -0.04882        0.42767
C          2.03844        1.60395       -1.40075
C         -1.75910        1.73066       -1.27709
C         -3.34139       -0.59292       -0.59002
C         -2.29177        1.08475        1.53884
P         -1.81610        0.31617       -0.07576
P          1.82106        0.61621        0.15464
C         -0.08138       -1.54954       -1.71186
O         -0.19307       -1.85479       -2.82113
H          0.88148        2.57921        1.17449
C          1.63694        1.43756        2.85324
H          2.52796        0.86337        3.15135
H          0.76764        0.76858        2.95017
H          2.64475        2.61081        1.33299
H          1.52063        2.26126        3.57449
H          3.48539       -0.61720        1.37144
C          3.99839       -0.94901       -0.70520
H          4.17511       -0.37826       -1.62989
H          3.24332       -1.71711       -0.93232
H          4.23469        0.78315        0.59556
H          4.94012       -1.45756       -0.44760
H          1.08311        2.13402       -1.54232
C          3.20960        2.56940       -1.49142
H          4.17678        2.05439       -1.38776
H          3.16462        3.34959       -0.71649
H          2.07541        0.85822       -2.21158
H          3.21787        3.08152       -2.46660
H         -1.10435        1.37570       -2.08861
C         -3.05364        2.27952       -1.86078
H         -3.75019        2.63837       -1.09058
H         -3.58074        1.51923       -2.45538
H         -1.18781        2.52256       -0.76191
H         -2.84101        3.12539       -2.53335
H         -3.16605       -0.88258       -1.63991
C         -3.60487       -1.82778        0.25534
H         -3.80953       -1.56785        1.30606
H         -2.72721       -2.49154        0.24012
H         -4.20975        0.08608       -0.58602
H         -4.47428       -2.38732       -0.12212
H         -1.39576        1.64005        1.86075
C         -3.53283        1.95764        1.62085
H         -4.43217        1.43569        1.25941
H         -3.42350        2.88270        1.03612
H         -2.36257        0.23217        2.23441
H         -3.72704        2.25514        2.66331
