56
Cat349.ts34.5.log	Energy: -1058348.4100007
C         -3.98503       -1.20446       -0.10571
H         -4.77742       -0.56816       -0.50867
H         -3.87812       -2.16499       -0.61966
C         -3.73595       -1.15356        1.30141
H         -4.27688       -0.43013        1.91797
H         -3.54038       -2.09420        1.82883
H         -2.11386       -1.04498        1.40123
Rh        -2.20791       -0.04275        0.11812
C          0.93327       -1.66825       -0.39406
C         -1.25659       -3.19746       -1.30110
C         -0.43640       -0.96265       -2.81959
C          0.87877        1.60839        0.45013
C         -1.30022        3.05622        1.52787
C         -0.30712        0.80945        2.94929
P         -0.74887        1.32495        1.24839
P         -0.75495       -1.43738       -1.07547
C         -2.81078        1.35441       -0.99096
O         -3.12382        2.22177       -1.68734
C          2.10824       -1.40807       -1.10510
H          2.06399       -1.06613       -2.14039
C          1.04972       -2.09186        0.93710
H          0.14144       -2.28229        1.51755
C          3.35446       -1.56262       -0.50156
H          4.25777       -1.34114       -1.07757
C          2.29583       -2.25758        1.53085
H          2.35759       -2.59638        2.56938
C          3.47479       -1.98544        0.82465
C          4.81778       -2.09662        1.48417
H          5.10321       -1.14110        1.95705
H          4.82066       -2.86304        2.27291
H          5.60525       -2.34770        0.75872
H         -1.39562       -3.66438       -0.31534
H         -2.21839       -3.23065       -1.83431
H         -0.50407       -3.76655       -1.86775
H          0.19747       -1.68580       -3.35642
H         -1.41209       -0.89084       -3.32136
H          0.02983        0.03199       -2.84843
C          0.88321        2.01518       -0.89095
H         -0.06691        2.15307       -1.41541
C          2.10697        1.42114        1.08875
H          2.14727        1.09234        2.12846
C          2.07900        2.23420       -1.56553
H          2.05580        2.55758       -2.61034
C          3.30210        1.63076        0.40402
H          4.25101        1.46510        0.92232
C          3.31304        2.03665       -0.93286
C          4.60295        2.20679       -1.67962
H          5.42143        2.50905       -1.01028
H          4.90568        1.25935       -2.15780
H          4.51447        2.95939       -2.47651
H         -1.51473        3.52436        0.55687
H         -2.23387        3.03769        2.10875
H         -0.53557        3.64539        2.05694
H          0.32736        1.54870        3.46129
H         -1.24382        0.68369        3.51038
H          0.20689       -0.16090        2.91405
