96
Cat377.ts34.5.log	Energy: -1886830.2949331
C          0.21231       -3.13277       -2.81528
H         -0.13156       -3.10690       -3.85252
H          1.27144       -3.38317       -2.70043
C         -0.70575       -3.54888       -1.81038
H         -1.74617       -3.75570       -2.07467
H         -0.34479       -4.17744       -0.98856
H         -0.52664       -2.41618       -0.62274
Rh        -0.43109       -1.34055       -1.82495
C          1.75707       -0.83963        0.91298
C          3.08936       -1.49929       -1.59792
C          2.00695        1.19741       -1.21882
C         -1.82337        1.61455       -0.40128
C         -3.73250       -0.21208       -1.40865
C         -2.35031       -0.77596        1.10589
P         -2.02261       -0.19893       -0.63101
P          1.59592       -0.60943       -0.89589
C         -0.71930       -0.43089       -3.45132
O         -0.89004        0.12951       -4.44731
C          1.18300        0.08568        1.79946
H          0.72907        1.00082        1.41683
C          2.27589       -2.01998        1.45919
H          2.67602       -2.79946        0.80775
C          1.17795       -0.14180        3.17110
H          0.73161        0.60693        3.83189
C          2.26750       -2.24456        2.83482
H          2.68443       -3.17666        3.22694
C          1.72941       -1.30672        3.72151
C          1.73994       -1.53044        5.20437
H          1.99066       -2.57093        5.45413
H          2.48313       -0.88125        5.69608
H          0.76182       -1.29821        5.65236
H          2.99020       -2.54757       -1.27819
H          2.88563       -1.50176       -2.67958
C          4.45892       -0.96261       -1.32499
C          5.05438       -0.06466       -2.22337
H          4.53196        0.19611       -3.14776
C          5.18151       -1.30750       -0.17317
H          4.75619       -2.00933        0.54466
C          6.30210        0.50049       -1.97374
H          6.76201        1.20344       -2.67036
C          6.43282       -0.75721        0.09025
H          6.99453       -1.02258        0.98764
C          6.97604        0.15038       -0.81110
F          8.17045        0.68388       -0.56107
H          2.73875        1.16784       -2.04149
H          1.08525        1.61976       -1.63782
C          2.49777        2.08136       -0.10937
C          1.69034        3.13610        0.33372
H          0.72461        3.30686       -0.14471
C          3.72730        1.88092        0.53003
H          4.37564        1.06373        0.21691
C          2.08043        3.96035        1.38637
H          1.44563        4.77620        1.73746
C          4.13597        2.69786        1.57932
H          5.09270        2.54104        2.08069
C          3.30344        3.72752        2.00043
F          3.68627        4.50622        3.01396
C         -1.51856        2.38229       -1.53551
H         -1.34206        1.88824       -2.49395
C         -2.03571        2.28531        0.80690
H         -2.29473        1.73331        1.71148
C         -1.45222        3.76936       -1.46461
H         -1.22155        4.34163       -2.36751
C         -1.94445        3.67503        0.87812
H         -2.11392        4.17248        1.83699
C         -1.65723        4.44437       -0.25263
C         -1.52494        5.93585       -0.17008
H         -2.02302        6.33747        0.72350
H         -0.46318        6.23053       -0.11884
H         -1.95347        6.42847       -1.05533
H         -3.56342        0.15383       -2.43281
H         -4.00261       -1.27464       -1.50252
C         -4.78456        0.58578       -0.70396
C         -5.63393        0.00247        0.24607
H         -5.57409       -1.07065        0.44148
C         -4.91969        1.96181       -0.94252
H         -4.27765        2.44476       -1.68194
C         -6.57223        0.75640        0.94768
H         -7.23631        0.30147        1.68468
C         -5.85060        2.73081       -0.25260
H         -5.95454        3.80141       -0.43726
C         -6.66425        2.11789        0.69232
F         -7.55602        2.84940        1.36010
H         -1.55795       -0.32279        1.71880
H         -3.31454       -0.35745        1.43632
C         -2.30122       -2.26443        1.27222
C         -3.32742       -3.10264        0.82045
H         -4.21853       -2.67434        0.35828
C         -1.17585       -2.85901        1.85574
H         -0.36088       -2.22790        2.21231
C         -3.23872       -4.48740        0.93954
H         -4.03619       -5.14440        0.58807
C         -1.06873       -4.24089        1.98392
H         -0.18997       -4.70171        2.43867
C         -2.10439       -5.04123        1.51964
F         -2.01080       -6.36594        1.63426
