90
Cat332.ts34.5.log	Energy: -2165196.4988426
C         -0.99095        0.20711       -3.78850
H         -0.70274       -0.57231       -4.49899
H         -2.07024        0.36428       -3.69828
C         -0.11767        1.31829       -3.61797
H          0.84961        1.34067       -4.12841
H         -0.55668        2.31608       -3.50503
H         -0.02503        1.47974       -1.97539
Rh         0.01910       -0.13325       -1.92974
C         -1.84065        1.52199        0.52522
C         -3.50521       -0.08406       -1.17421
C         -1.99341       -1.36483        0.79470
C          1.85114       -1.23961        0.82685
C          3.46061       -0.11248       -1.23920
C          1.98312        1.61318        0.51057
P          1.79890        0.06402       -0.46529
P         -1.81216       -0.02825       -0.45479
C          0.47482       -1.90567       -2.39433
O          0.76776       -2.98441       -2.67972
C         -1.43334        1.59908        1.86110
H         -1.21323        0.68497        2.41461
C         -2.11946        2.72008       -0.15183
H         -2.41976        2.69005       -1.20302
C         -1.30164        2.82695        2.50714
H         -0.96629        2.87834        3.54404
C         -2.01455        3.95025        0.48431
H         -2.24001        4.87688       -0.04622
C         -1.59636        3.99594        1.81461
Cl        -1.42400        5.53344        2.60026
C         -3.73191       -1.03413       -2.17898
H         -2.89744       -1.65138       -2.52467
C         -4.58169        0.69504       -0.73970
H         -4.44022        1.43453        0.05189
C         -4.99793       -1.19891       -2.72868
H         -5.15146       -1.95226       -3.50666
C         -5.84559        0.53322       -1.30417
H         -6.67367        1.15336       -0.94899
C         -6.07839       -0.41239       -2.30780
C         -7.43327       -0.56790       -2.93350
H         -7.67713       -1.62689       -3.10598
H         -8.22173       -0.13254       -2.30331
H         -7.47573       -0.06226       -3.91272
C         -2.87933       -1.27113        1.87501
H         -3.47548       -0.36620        2.01865
C         -1.28647       -2.55677        0.61396
H         -0.59514       -2.64180       -0.22586
C         -3.01328       -2.32668        2.77243
H         -3.69942       -2.22948        3.61857
C         -1.44390       -3.61817        1.49845
H         -0.87198       -4.53636        1.34094
C         -2.29559       -3.51767        2.60387
C         -2.42137       -4.65401        3.57490
H         -1.44255       -4.89176        4.02031
H         -3.12253       -4.41852        4.38759
H         -2.77739       -5.56746        3.07260
C          2.38472       -2.49722        0.51858
H          2.86896       -2.66310       -0.44679
C          1.23025       -1.06295        2.06914
H          0.79796       -0.09491        2.32535
C          2.30046       -3.55090        1.42415
H          2.71022       -4.53190        1.17853
C          1.14827       -2.10315        2.98827
H          0.65197       -1.96214        3.94938
C          1.67990       -3.34573        2.65493
Cl         1.54221       -4.66532        3.77290
C          3.55688       -0.16045       -2.62984
H          2.63373       -0.12059       -3.21563
C          4.63828       -0.18738       -0.48207
H          4.59303       -0.16381        0.60883
C          4.79927       -0.27509       -3.25333
H          4.85164       -0.31408       -4.34487
C          5.87224       -0.30530       -1.10725
H          6.77905       -0.36766       -0.49869
C          5.97682       -0.34828       -2.50624
C          7.31847       -0.46819       -3.16679
H          7.94577        0.41162       -2.95059
H          7.86552       -1.35121       -2.80070
H          7.22509       -0.55505       -4.25813
C          2.72473        1.67258        1.69760
H          3.18442        0.77049        2.10640
C          1.40910        2.79638        0.03569
H          0.81546        2.76817       -0.88019
C          2.86993        2.87274        2.38772
H          3.44602        2.88950        3.31708
C          1.56568        3.99490        0.72187
H          1.09361        4.90097        0.33298
C          2.29303        4.05657        1.91594
C          2.42411        5.34737        2.66757
H          2.82137        6.14531        2.02105
H          1.43926        5.68417        3.02787
H          3.09176        5.24610        3.53441
