100
Cat375.ts34.5.log	Energy: -1826606.4596259
C         -0.97908       -1.02693       -3.51180
H         -0.91941       -2.07100       -3.82748
H         -1.98479       -0.59866       -3.54356
C          0.14442       -0.18469       -3.71279
H          1.07893       -0.59002       -4.10968
H         -0.02578        0.86321       -3.98260
H          0.41146        0.54676       -2.24580
Rh        -0.00915       -0.86623       -1.58170
C         -1.99975        1.96755       -0.63923
O         -3.29290       -0.29046       -0.79185
O         -1.59506       -0.01346        1.17393
C          2.10990       -1.67688        1.11545
O          3.27686       -0.51069       -0.93609
O          1.68408        0.93361        0.50555
P          1.74900       -0.55361       -0.25545
P         -1.71282        0.17684       -0.48761
C         -0.06801       -2.74896       -1.27932
O         -0.10006       -3.87840       -1.07207
C         -0.89855        2.80260       -0.40363
H          0.06357        2.35963       -0.13159
C         -3.21433        2.53675       -1.02792
H         -4.07077        1.89158       -1.23073
C         -1.02748        4.18073       -0.52200
H         -0.16164        4.81895       -0.32302
C         -3.32842        3.91962       -1.15697
H         -4.28444        4.35269       -1.46459
C         -2.24510        4.76538       -0.89876
C         -2.37441        6.25580       -1.01093
H         -3.32801        6.54596       -1.47359
H         -2.32634        6.72990       -0.01689
H         -1.55784        6.68501       -1.61175
C         -3.62121       -1.60445       -0.99373
C         -3.17763       -2.60176       -0.12826
H         -2.55509       -2.32832        0.72607
C         -4.42934       -1.91626       -2.08680
H         -4.76290       -1.11504       -2.74874
C         -3.51626       -3.94067       -0.35517
C         -2.97932       -5.01029        0.54934
H         -1.90576       -5.16618        0.35546
H         -3.08295       -4.72936        1.60840
H         -3.49533       -5.96813        0.39462
C         -4.78359       -3.24358       -2.30423
H         -5.41815       -3.49989       -3.15613
C         -4.32754       -4.24891       -1.45140
H         -4.60482       -5.28918       -1.63953
C         -2.25470        0.67110        2.15862
C         -3.58848        1.05601        2.04333
H         -4.14197        0.80344        1.13864
C         -1.53431        0.94372        3.32442
H         -0.49491        0.61949        3.39635
C         -4.21497        1.75507        3.08223
C         -5.64179        2.19473        2.92557
H         -5.73545        2.93629        2.11558
H         -6.29442        1.34725        2.66410
H         -6.02836        2.65102        3.84746
C         -2.16036        1.62436        4.36238
H         -1.60260        1.84095        5.27688
C         -3.48787        2.03624        4.24219
H         -3.96753        2.57828        5.06110
C          1.07101       -1.90178        2.02921
H          0.10883       -1.40067        1.88774
C          3.32776       -2.33861        1.28122
H          4.13349       -2.17434        0.56369
C          1.26603       -2.75917        3.10440
H          0.45126       -2.91975        3.81605
C          3.50689       -3.20300        2.35863
H          4.46410       -3.71739        2.48083
C          2.48578       -3.42549        3.28839
C          2.67373       -4.36667        4.44124
H          2.06771       -5.27768        4.30746
H          3.72308       -4.67587        4.54478
H          2.35689       -3.90501        5.38899
C          3.45653        0.04186       -2.17711
C          3.12154        1.37291       -2.41451
H          2.72450        1.97377       -1.59361
C          3.96294       -0.76065       -3.19826
H          4.20298       -1.80367       -2.98630
C          3.26906        1.92526       -3.69173
C          2.88495        3.35583       -3.93601
H          1.87504        3.56624       -3.55041
H          3.57595        4.04419       -3.42289
H          2.90094        3.60133       -5.00694
C          4.12770       -0.20991       -4.46552
H          4.52080       -0.82859       -5.27584
C          3.77707        1.11761       -4.71427
H          3.89692        1.53240       -5.71832
C          2.42520        1.37302        1.57045
C          3.77317        1.06079        1.73133
H          4.27357        0.44280        0.98541
C          1.77019        2.19570        2.49022
H          0.71674        2.43432        2.33636
C          4.48200        1.54089        2.83951
C          5.92358        1.16227        3.01881
H          6.51314        1.39480        2.11839
H          6.37767        1.68922        3.86944
H          6.02335        0.07957        3.19932
C          2.47783        2.68526        3.58196
H          1.97140        3.32877        4.30558
C          3.82139        2.35580        3.76281
H          4.36542        2.73896        4.62981
