102
Cat318.ts34.5.log	Energy: -1811653.7264865
C          1.94558        0.12945       -3.23167
H          1.50320        0.39245       -4.19601
H          2.83803        0.70597       -2.96695
C          1.84956       -1.21959       -2.78813
H          1.27190       -1.94374       -3.36806
H          2.70857       -1.67306       -2.28133
H          1.34105       -1.10832       -1.21673
Rh         0.39287        0.09212       -1.74091
C          3.37938        1.27476       -0.32866
C          1.51788        3.37756       -0.84647
C          1.24540        1.83733        1.49502
C         -2.31938       -0.06255        0.55220
C         -2.54575       -1.73966       -1.76383
C         -0.79160       -2.47376        0.45056
P         -1.25890       -1.01462       -0.60403
P          1.55778        1.57716       -0.33803
C         -0.86128        0.89376       -2.89413
O         -1.65722        1.29206       -3.63175
C          3.81630       -0.05271       -0.19747
H          3.07472       -0.84967       -0.10695
C          4.35155        2.27648       -0.45348
H          4.06361        3.32237       -0.56655
C          5.17020       -0.37177       -0.17515
H          5.51265       -1.40206       -0.07235
C          5.71201        1.97301       -0.44186
H          6.47148        2.75022       -0.54502
C          6.10454        0.64921       -0.29889
F          7.40203        0.35026       -0.28689
H          2.19857        3.94714       -0.19474
H          1.92136        3.40069       -1.87019
C          0.15219        3.99178       -0.80138
C         -0.68914        3.95221       -1.91800
H         -0.33493        3.49616       -2.84290
C         -0.31520        4.61177        0.36413
H          0.34275        4.67283        1.23606
C         -1.96856        4.49706       -1.85484
H         -2.61663        4.45237       -2.73310
C         -1.59385        5.17232        0.44484
C         -2.07719        5.79695        1.72213
H         -2.55008        5.04476        2.37730
H         -1.24959        6.24467        2.29115
H         -2.82566        6.57951        1.53146
C         -2.41971        5.10203       -0.68352
H         -3.42281        5.53631       -0.64599
H          1.89925        2.66585        1.81303
H          0.20372        2.18697        1.55683
C          1.44385        0.65234        2.38708
C          0.34698       -0.05692        2.88824
H         -0.66364        0.25723        2.62017
C          2.72938        0.24866        2.77039
H          3.59306        0.81293        2.41040
C          0.53993       -1.14933        3.73141
H         -0.32540       -1.69308        4.11926
C          2.94213       -0.85077        3.60744
C          4.33469       -1.23973        4.01302
H          5.06797       -0.97043        3.23847
H          4.63422       -0.72242        4.93987
H          4.41355       -2.32009        4.20298
C          1.82668       -1.55319        4.08019
H          1.96958       -2.41747        4.73452
C         -2.41986        1.32176        0.37089
H         -1.84477        1.80395       -0.42464
C         -3.04906       -0.66152        1.59017
H         -3.00909       -1.74093        1.74574
C         -3.23024        2.09477        1.19886
H         -3.31803        3.17100        1.05101
C         -3.84373        0.10263        2.44022
H         -4.40824       -0.35088        3.25698
C         -3.92512        1.47454        2.22827
F         -4.68836        2.21216        3.03392
H         -2.84165       -0.89726       -2.40587
H         -1.98840       -2.44221       -2.40189
C         -3.73297       -2.37317       -1.11608
C         -3.76173       -3.74113       -0.81018
H         -2.93355       -4.38520       -1.11762
C         -4.82555       -1.58502       -0.73795
H         -4.81206       -0.51712       -0.97534
C         -4.84575       -4.28703       -0.12782
H         -4.86094       -5.35539        0.10142
C         -5.91860       -2.11358       -0.04482
C         -7.04182       -1.21642        0.38573
H         -6.69855       -0.50936        1.15926
H         -7.41875       -0.61377       -0.45481
H         -7.88334       -1.78863        0.80060
C         -5.91337       -3.47875        0.25965
H         -6.75872       -3.91413        0.79940
H         -0.56884       -2.05630        1.44116
H         -1.67603       -3.12278        0.54914
C          0.39335       -3.24270       -0.04289
C          0.31857       -4.07930       -1.16201
H         -0.62954       -4.20210       -1.69061
C          1.62256       -3.10877        0.61179
H          1.68629       -2.45611        1.48700
C          1.45162       -4.75007       -1.61474
H          1.38627       -5.39260       -2.49623
C          2.76476       -3.79427        0.18454
C          4.04728       -3.68993        0.95785
H          4.11661       -2.73278        1.49307
H          4.11115       -4.48910        1.71531
H          4.92610       -3.79461        0.30433
C          2.66734       -4.60867       -0.94915
H          3.55058       -5.14410       -1.30835
