78
Cat326.ts34.5.log	Energy: -1971639.6035953
C          1.55447        0.78909        3.13322
H          1.06450        0.63229        4.09766
H          2.47845        0.21924        2.99255
C          1.44027        2.06840        2.52028
H          0.81734        2.83855        2.98343
H          2.31300        2.47224        1.99498
H          1.01263        1.73172        0.94844
Rh         0.08447        0.56560        1.56945
C          2.94820       -0.45483       -0.18845
O          1.82596       -2.37255        1.15722
O          0.59003       -1.56875       -0.95188
C         -2.82201        0.23323       -0.38568
O         -2.20278        2.68100        0.21737
O         -0.61833        1.49778       -1.41347
P         -1.37946        1.26725        0.02573
P          1.30950       -0.98704        0.41860
C         -1.23515       -0.21669        2.69676
O         -2.03724       -0.72094        3.34972
C          2.98732        0.72047       -0.95217
H          2.05348        1.25017       -1.16914
C          4.13874       -1.12892        0.09379
H          4.10487       -2.03979        0.69419
C          4.19324        1.20481       -1.44463
H          4.23179        2.11358       -2.04752
C          5.35517       -0.64616       -0.38593
H          6.29066       -1.16438       -0.16831
C          5.37321        0.51565       -1.15482
Cl         6.88101        1.12047       -1.75526
C          0.92032       -3.12547        1.97286
H         -0.10961       -2.78003        1.76585
C          1.23650       -2.87740        3.43270
H          1.12114       -1.81200        3.66969
H          2.27221       -3.17838        3.65425
H          0.55781       -3.45293        4.07968
C          1.05062       -4.58295        1.58054
H          0.81180       -4.73032        0.51798
H          2.07993       -4.93349        1.75287
H          0.36864       -5.20573        2.17832
C          1.16444       -2.57602       -1.79368
H          1.94752       -3.10440       -1.22170
C          1.77647       -1.94193       -3.02754
H          2.59214       -1.25657       -2.76289
H          1.01203       -1.37570       -3.58034
H          2.18220       -2.71841       -3.69353
C          0.05389       -3.54980       -2.13684
H         -0.38628       -3.97931       -1.22509
H         -0.74499       -3.03485       -2.69283
H          0.43452       -4.37287       -2.75991
C         -4.12348        0.73716       -0.46900
H         -4.29872        1.79733       -0.27972
C         -2.59688       -1.13189       -0.60553
H         -1.57797       -1.52345       -0.54555
C         -5.18777       -0.10497       -0.78190
H         -6.20714        0.27900       -0.84664
C         -3.65181       -1.97913       -0.92476
H         -3.48277       -3.04228       -1.10419
C         -4.94353       -1.45793       -1.01109
Cl        -6.26248       -2.50928       -1.40266
C         -1.60432        3.79745        0.88450
H         -0.50564        3.68880        0.83272
C         -2.03143        3.79781        2.33786
H         -1.70467        2.86596        2.82269
H         -3.12743        3.86762        2.41376
H         -1.58908        4.65118        2.87417
C         -2.02093        5.04590        0.13606
H         -1.69457        5.00213       -0.91280
H         -3.11648        5.15295        0.15070
H         -1.58013        5.94029        0.60092
C         -1.30558        1.92300       -2.59558
H         -2.30931        2.28623       -2.31218
C         -1.43860        0.74995       -3.54574
H         -2.01321       -0.06511       -3.08514
H         -0.44220        0.36440       -3.80860
H         -1.95049        1.05716       -4.47010
C         -0.51528        3.07282       -3.18640
H         -0.42281        3.89290       -2.46023
H          0.49826        2.73819       -3.45690
H         -1.00568        3.46062       -4.09175
