108
Cat371.ts34.5.log	Energy: -1736456.8911908
C         -0.58319        1.55086       -3.17550
H         -0.11146        1.34133       -4.13878
H         -1.67497        1.47670       -3.16812
C          0.03846        2.46751       -2.29737
H          0.98319        2.93183       -2.58244
H         -0.59427        3.09575       -1.66159
H          0.28141        1.68980       -0.81042
Rh         0.43382        0.33831       -1.69017
C         -2.75865        1.19004       -0.57835
C         -2.60230       -1.26710       -2.17344
C         -2.06739       -1.27912        0.74555
C          2.07207       -1.18988        1.02387
C          3.67699       -0.91897       -1.29884
C          3.19365        1.41349        0.33612
P          2.28472       -0.03643       -0.39930
P         -1.70044       -0.28924       -0.83054
C          0.86229       -1.02673       -2.90832
O          1.09347       -1.90328       -3.62487
C         -2.29041        2.13142        0.35304
H         -1.32665        1.97482        0.84362
C         -3.96339        1.46492       -1.22762
H         -4.36243        0.77850       -1.97532
C         -3.02660        3.26684        0.65735
H         -2.63657        3.96917        1.39920
C         -4.69231        2.61777       -0.93319
H         -5.63329        2.80372       -1.45867
C         -4.24963        3.53054        0.02554
C         -5.04954        4.74891        0.38030
H         -5.89248        4.89557       -0.30957
H         -5.46121        4.66340        1.39945
H         -4.42874        5.65804        0.35861
H         -3.10668       -0.51853       -2.79940
H         -1.79363       -1.67330       -2.79310
C         -3.54768       -2.35140       -1.76443
C         -4.91791       -2.10252       -1.62325
H         -5.30298       -1.10356       -1.83950
C         -3.05838       -3.64822       -1.48974
C         -1.59737       -3.96463       -1.62668
H         -0.98013       -3.30563       -0.99568
H         -1.23969       -3.82559       -2.65946
H         -1.38791       -5.00270       -1.33468
C         -5.80068       -3.09745       -1.21133
H         -6.86525       -2.87420       -1.10938
C         -3.95738       -4.63698       -1.07726
H         -3.57644       -5.63955       -0.86376
C         -5.31729       -4.37293       -0.93338
H         -5.99672       -5.16372       -0.60713
H         -2.64098       -2.16026        0.42517
H         -1.09624       -1.63014        1.11309
C         -2.83164       -0.55266        1.80918
C         -4.21999       -0.41914        1.69088
H         -4.72307       -0.89255        0.84407
C         -2.17553        0.04724        2.90106
C         -0.69323       -0.08881        3.07034
H         -0.15393        0.21360        2.16094
H         -0.39716       -1.13099        3.27207
H         -0.32833        0.52709        3.90429
C         -4.95758        0.31554        2.61259
H         -6.03881        0.41473        2.49120
C         -2.93081        0.77928        3.82362
H         -2.41926        1.24880        4.66895
C         -4.30816        0.92558        3.68398
H         -4.87337        1.51071        4.41356
C          1.33471       -2.35202        0.76078
H          0.89145       -2.47682       -0.23201
C          2.62009       -1.03875        2.30010
H          3.22476       -0.16529        2.54926
C          1.15563       -3.32810        1.73336
H          0.57839       -4.22609        1.49450
C          2.42209       -2.00912        3.28171
H          2.85678       -1.86098        4.27417
C          1.68721       -3.16941        3.02104
C          1.44317       -4.19507        4.08783
H          2.19076       -4.12914        4.89092
H          0.45113       -4.05181        4.54806
H          1.46555       -5.21572        3.67827
H          3.27711       -1.92630       -1.49249
H          3.74782       -0.41978       -2.27420
C          4.99306       -0.98003       -0.58755
C          5.17928       -1.90757        0.44676
H          4.37512       -2.60881        0.67927
C          6.05068       -0.10505       -0.92095
C          5.96058        0.84264       -2.08541
H          5.12225        1.55133       -2.00266
H          5.81713        0.29878       -3.03328
H          6.88191        1.43370       -2.17867
C          6.36256       -1.95345        1.17775
H          6.47809       -2.68483        1.98114
C          7.23237       -0.16411       -0.17376
H          8.05157        0.51321       -0.43093
C          7.39258       -1.06749        0.87394
H          8.32714       -1.08822        1.43955
H          3.82670        1.05476        1.16070
H          3.88902        1.73113       -0.44767
C          2.31249        2.55003        0.75839
C          1.53126        2.43604        1.91289
H          1.60868        1.53070        2.51666
C          2.22788        3.72727       -0.01263
C          3.08435        3.92829       -1.23040
H          2.97888        3.09828       -1.94622
H          4.15249        3.99331       -0.96389
H          2.81654        4.85799       -1.75077
C          0.64863        3.44084        2.29816
H          0.03936        3.31729        3.19681
C          1.33543        4.72870        0.38567
H          1.26155        5.63812       -0.21696
C          0.54334        4.59286        1.52302
H         -0.14863        5.38995        1.80510
