84
Cat3.ts34.5.log	Energy: -1162987.4824286
C          0.64255       -2.65019       -2.67390
H          0.99801       -3.62979       -2.34363
H         -0.21064       -2.69308       -3.35791
C          1.60754       -1.61199       -2.85062
H          2.65397       -1.79753       -2.59163
H          1.50064       -0.94478       -3.71328
H          0.96485       -0.31497       -2.07808
Rh         0.43849       -1.38307       -0.96101
C         -2.36579       -0.79542       -3.12214
C         -3.06447       -1.69327       -0.52735
C         -2.22839        1.04546       -0.94210
C          0.23132        0.21240        2.18411
C          2.87525       -0.31273        1.32438
C          1.37452        1.83378        0.08271
P          1.20836        0.07916        0.63366
P         -1.76467       -0.69537       -1.38501
C          0.49021       -2.79412        0.27733
O          0.51011       -3.62138        1.08573
H         -1.73326       -0.16041       -3.76033
H         -2.26523       -1.83282       -3.47245
H         -3.41734       -0.49001       -3.23257
H         -4.07045       -1.38723       -0.86417
H         -2.90900       -2.72804       -0.87732
C         -2.95456       -1.64040        0.98800
H         -1.91365       -1.86714        1.27262
H         -3.15019       -0.61147        1.34182
C         -3.89332       -2.59939        1.70539
H         -3.70047       -3.62708        1.34798
H         -4.93967       -2.37547        1.42722
C         -3.75038       -2.55909        3.22047
H         -2.70240       -2.78478        3.48596
H         -3.93279       -1.52830        3.57395
C         -4.68025       -3.52000        3.94322
H         -4.55156       -3.46815        5.03507
H         -4.49361       -4.56156        3.63585
H         -5.73665       -3.29721        3.72175
H         -1.85963        1.20510        0.08503
H         -1.59245        1.68158       -1.58258
C         -3.68509        1.47181       -1.04164
H         -4.06409        1.29712       -2.06337
H         -4.30463        0.84342       -0.37868
C         -3.89891        2.93534       -0.67649
H         -3.28397        3.57076       -1.33993
H         -3.51599        3.11502        0.34504
C         -5.35252        3.38070       -0.75538
H         -5.73153        3.19687       -1.77643
H         -5.96234        2.74133       -0.09256
C         -5.55811        4.84145       -0.38844
H         -6.61727        5.13288       -0.45462
H         -4.98813        5.50558       -1.05808
H         -5.22079        5.04604        0.64052
H          0.13389       -0.79432        2.61592
H          0.69899        0.87640        2.92644
H         -0.77970        0.57652        1.95365
H          3.13217        0.40547        2.12259
H          2.76431       -1.30033        1.80386
C          3.96169       -0.37005        0.26286
H          3.61728       -1.03574       -0.54725
H          4.08938        0.62682       -0.19688
C          5.30448       -0.85169        0.79275
H          5.17697       -1.85179        1.24542
H          5.63787       -0.19173        1.61478
C          6.38808       -0.91541       -0.27466
H          6.04606       -1.57159       -1.09453
H          6.50995        0.08535       -0.72632
C          7.72742       -1.40650        0.25028
H          8.48848       -1.44145       -0.54401
H          7.64233       -2.42013        0.67402
H          8.10936       -0.74918        1.04817
H          1.96354        1.79281       -0.84868
H          0.36234        2.14043       -0.22833
C          1.96900        2.84183        1.05369
H          1.39514        2.84574        1.99663
H          2.99565        2.54141        1.32594
C          2.00051        4.25631        0.48867
H          0.97364        4.56317        0.21782
H          2.57039        4.25750       -0.45836
C          2.59998        5.28174        1.44076
H          2.02968        5.27323        2.38670
H          3.62499        4.96964        1.70896
C          2.62650        6.69118        0.87199
H          3.06459        7.40866        1.58220
H          1.61095        7.04264        0.62810
H          3.22017        6.73652       -0.05525
