94
Cat316.ts34.5.log	Energy: -1901700.1337642
C          1.01548       -0.65496       -3.43577
H          0.82760        0.06712       -4.23493
H          2.06182       -0.95318       -3.31892
C         -0.00018       -1.60265       -3.12794
H         -0.96857       -1.55766       -3.63548
H          0.30579       -2.62693       -2.88511
H         -0.15355       -1.54652       -1.49800
Rh         0.07278        0.04740       -1.64156
C          1.44433       -1.24566        1.33797
C          3.31881       -1.04129       -0.84201
C          2.61741        1.28747        0.64336
C         -1.83629        1.73501        0.71434
C         -3.40286        0.38757       -1.29137
C         -2.24907       -1.12929        0.81225
P         -1.82965        0.24117       -0.34822
P          1.85239       -0.20157       -0.11957
C          0.00807        1.82154       -2.27583
O         -0.01403        2.90327       -2.67718
C          1.57662       -0.80985        2.66124
H          2.02468        0.16279        2.87217
C          0.85019       -2.49595        1.10883
H          0.68783       -2.83186        0.08150
C          1.12660       -1.59053        3.72492
H          1.20471       -1.24693        4.75809
C          0.43454       -3.30371        2.15941
H         -0.03503       -4.27239        1.98526
C          0.56396       -2.83010        3.45885
F          0.11299       -3.57479        4.46967
C          3.73116       -2.33379       -0.52207
H          3.22667       -2.86866        0.28495
C          4.00437       -0.35019       -1.86408
O          3.57407        0.90110       -2.10778
C          4.04481        1.60358       -3.22039
H          5.11901        1.84358       -3.13040
H          3.47175        2.53849       -3.26041
H          3.87906        1.03986       -4.15522
C          4.78545       -2.94680       -1.20088
H          5.09073       -3.96039       -0.93175
C          5.05936       -0.95959       -2.54915
H          5.58526       -0.42437       -3.34053
C          5.44458       -2.25803       -2.21422
H          6.27063       -2.72753       -2.75387
C          2.03100        2.53236        0.42667
H          1.11889        2.57234       -0.17035
C          3.81055        1.22632        1.39781
O          4.33758        0.00493        1.59255
C          5.56320       -0.13389        2.24931
H          6.36526        0.42778        1.73971
H          5.80704       -1.20344        2.22402
H          5.50684        0.19757        3.30145
C          2.58334        3.70317        0.94527
H          2.09638        4.66337        0.76494
C          4.37538        2.39785        1.91365
H          5.29612        2.35719        2.49625
C          3.75732        3.62795        1.68607
H          4.20885        4.53456        2.09700
C         -2.68630        2.81955        0.47302
H         -3.43739        2.75777       -0.31690
C         -0.86007        1.85782        1.71204
H         -0.15690        1.04103        1.88674
C         -2.57909        3.99113        1.21862
H         -3.23106        4.84677        1.03344
C         -0.75377        3.01381        2.47822
H          0.00925        3.11683        3.25152
C         -1.61803        4.07005        2.21826
F         -1.51505        5.18857        2.93671
C         -3.34777        0.41550       -2.68329
H         -2.35438        0.39374       -3.14290
C         -4.66562        0.41023       -0.66029
O         -4.66501        0.41249        0.68316
C         -5.87121        0.33735        1.38591
H         -6.50383        1.22574        1.21298
H         -5.60610        0.28855        2.44949
H         -6.44268       -0.56835        1.11843
C         -4.50684        0.46079       -3.45786
H         -4.43984        0.48564       -4.54736
C         -5.83228        0.44508       -1.43203
H         -6.81175        0.46088       -0.95320
C         -5.74500        0.46941       -2.82428
H         -6.66492        0.49962       -3.41386
C         -2.30534       -0.99110        2.19789
H         -2.10103       -0.01821        2.64572
C         -2.55534       -2.38869        0.25442
O         -2.49999       -2.47040       -1.08955
C         -2.86313       -3.65652       -1.73283
H         -2.19843       -4.49445       -1.45722
H         -2.76930       -3.46735       -2.80950
H         -3.90645       -3.93922       -1.50858
C         -2.64407       -2.06213        3.02460
H         -2.66612       -1.92867        4.10791
C         -2.90911       -3.46267        1.07655
H         -3.15402       -4.43252        0.64275
C         -2.94922       -3.29495        2.46034
H         -3.21684       -4.14175        3.09678
