88
Cat365.ts34.5.log	Energy: -1727992.2363515
C          1.18533       -2.79701       -2.65158
H          0.87158       -2.93503       -3.68928
H          2.24298       -2.54892       -2.51955
C          0.52673       -3.54136       -1.63566
H         -0.33396       -4.16784       -1.88427
H          1.11620       -3.91778       -0.79230
H          0.21807       -2.37921       -0.45904
Rh        -0.17071       -1.42107       -1.69440
C          2.99466       -0.79245       -0.41350
O          1.92073        1.29968       -1.78673
O          0.88370        0.66756        0.53176
C         -2.30090        1.03351       -0.32166
O         -3.31959       -1.47113       -0.68468
O         -1.71083       -0.93069        1.25342
P         -1.85488       -0.72596       -0.39515
P          1.41530       -0.01287       -0.88453
C         -1.00410       -0.97403       -3.35305
O         -1.50387       -0.70245       -4.35135
C          3.01254       -1.63753        0.70638
H          2.13199       -1.70882        1.35099
C          4.11489       -0.75040       -1.24626
H          4.09640       -0.13105       -2.14593
C          4.14551       -2.38247        1.00332
H          4.14424       -3.02683        1.88722
C          5.24745       -1.50517       -0.94108
H          6.11867       -1.45760       -1.60031
C          5.28694       -2.32735        0.18865
C          6.50293       -3.13966        0.52345
H          7.29833       -3.00335       -0.22225
H          6.90988       -2.85789        1.50775
H          6.26287       -4.21373        0.57022
C          2.37419        2.49279       -1.28244
C          3.73528        2.79523       -1.31623
H          4.43563        2.07537       -1.74044
C          1.46024        3.40762       -0.75701
H          0.39977        3.15216       -0.74263
C          4.18221        4.00719       -0.79316
H          5.24948        4.24055       -0.81535
C          1.91865        4.60989       -0.22801
H          1.20183        5.31220        0.20376
C          3.27986        4.91301       -0.23809
H          3.63654        5.85551        0.18285
C          1.42222        1.39916        1.55273
C          2.78810        1.57298        1.77618
H          3.52068        1.12335        1.10850
C          0.48640        1.99124        2.40543
H         -0.57314        1.84308        2.18867
C          3.20550        2.35537        2.85159
H          4.27621        2.50041        3.01396
C          0.91887        2.76432        3.47802
H          0.18092        3.22917        4.13655
C          2.28212        2.95245        3.70720
H          2.62242        3.56464        4.54506
C         -1.94636        1.85444       -1.39402
H         -1.39561        1.43301       -2.23848
C         -2.97475        1.59442        0.77224
H         -3.25270        0.96451        1.61894
C         -2.26225        3.21154       -1.37688
H         -1.97356        3.84004       -2.22358
C         -3.27904        2.94969        0.78327
H         -3.80427        3.37358        1.64377
C         -2.92631        3.78370       -0.28755
C         -3.22831        5.25230       -0.24559
H         -4.23868        5.44372        0.14575
H         -2.52003        5.77766        0.41661
H         -3.15180        5.70972       -1.24181
C         -4.48658       -1.09741       -0.06690
C         -5.35649       -0.22906       -0.72598
H         -5.07978        0.14673       -1.71259
C         -4.80148       -1.59532        1.19783
H         -4.10806       -2.27561        1.69479
C         -6.54660        0.14836       -0.10954
H         -7.22700        0.83053       -0.62473
C         -5.99429       -1.20921        1.80632
H         -6.24217       -1.59746        2.79717
C         -6.86787       -0.33621        1.15838
H         -7.80129       -0.03669        1.64009
C         -1.05334       -1.96847        1.84102
C         -1.28164       -3.29392        1.46111
H         -1.99506       -3.51109        0.66360
C         -0.14315       -1.66922        2.85605
H          0.02148       -0.62453        3.12489
C         -0.58118       -4.31804        2.09674
H         -0.75662       -5.35335        1.79476
C          0.54333       -2.70268        3.48894
H          1.25640       -2.46471        4.28203
C          0.33361       -4.02910        3.10847
H          0.87792       -4.83618        3.60361
