80
Cat381.ts34.5.log	Energy: -1255524.5680117
C         -1.06417       -1.53305       -3.03859
H         -0.57384       -2.43780       -3.40851
H         -2.14319       -1.65178       -2.88846
C         -0.57281       -0.26957       -3.50023
H          0.32272       -0.24575       -4.12807
H         -1.29936        0.49964       -3.79019
H         -0.52840        0.62545       -2.15836
Rh         0.03622       -0.70173       -1.41509
C         -2.41748        0.88524        0.73333
C         -3.13013       -1.79273       -0.19464
C         -1.04731       -1.37626        1.93970
C          2.47045       -0.00007        1.00991
C          3.09956        0.91993       -1.66508
C          1.06568        2.43852       -0.03598
P          1.63628        0.71767       -0.49000
P         -1.64674       -0.73842        0.27681
C          1.07565       -2.27080       -1.31603
O          1.67924       -3.25521       -1.33829
C         -2.19321        1.46813        1.99159
H         -1.66530        0.91042        2.76343
C         -3.14136        1.64129       -0.22296
C         -3.45592        1.12305       -1.59472
H         -4.35263        0.48252       -1.58650
H         -2.62187        0.52388       -1.98511
H         -3.65001        1.95044       -2.29145
C         -2.63423        2.75035        2.30815
H         -2.43166        3.16250        3.29970
C         -3.58259        2.92566        0.11504
H         -4.13180        3.50012       -0.63635
C         -3.33410        3.49070        1.36179
H         -3.68702        4.49902        1.59017
H         -3.30688       -1.45593       -1.22753
C         -2.73748       -3.26303       -0.28562
H         -3.51916       -3.82990       -0.81637
H         -1.79148       -3.38964       -0.83333
H         -2.62351       -3.71871        0.70921
C         -4.42697       -1.58111        0.57720
H         -4.67658       -0.51541        0.68675
H         -5.25981       -2.06878        0.04329
H         -4.38780       -2.01757        1.58381
H         -0.45571       -0.51968        2.30068
C         -2.12310       -1.69628        2.97399
H         -1.66096       -1.82015        3.96734
H         -2.89377       -0.91744        3.05568
H         -2.62738       -2.64438        2.73624
C         -0.05334       -2.52615        1.81713
H          0.80605       -2.24683        1.19806
H          0.32521       -2.78602        2.81865
H         -0.50443       -3.43016        1.38462
C          3.30490       -1.08650        0.68400
H          3.44613       -1.35668       -0.36318
C          2.27811        0.29642        2.38099
C          1.41844        1.40219        2.93051
H          0.39416        1.37925        2.53848
H          1.82537        2.39864        2.70882
H          1.35083        1.31374        4.02327
C          3.94385       -1.86052        1.64228
H          4.57406       -2.69666        1.33187
C          2.93242       -0.50318        3.33348
H          2.77670       -0.27163        4.39069
C          3.75579       -1.56615        2.98892
H          4.23927       -2.16210        3.76630
H          3.24664       -0.12698       -1.97834
C          2.68819        1.68775       -2.91641
H          3.44168        1.54604       -3.70741
H          1.71951        1.34033       -3.30157
H          2.61887        2.76912       -2.72516
C          4.41808        1.43842       -1.10060
H          4.70475        0.93486       -0.16704
H          5.22234        1.26244       -1.83385
H          4.38839        2.51893       -0.90820
H          0.44182        2.24235        0.84620
C          2.17847        3.40946        0.34566
H          1.75550        4.27681        0.87845
H          2.94500        2.95435        0.98892
H          2.68577        3.79856       -0.54951
C          0.12377        3.05916       -1.06289
H         -0.72908        2.39925       -1.26558
H         -0.27411        4.00446       -0.66104
H          0.62277        3.28229       -2.01604
