84
Cat357.ts34.5.log	Energy: -1539245.8056765
C         -1.02989       -0.18201       -3.64609
H         -0.70012       -1.00601       -4.28457
H         -2.11585       -0.08429       -3.55355
C         -0.22761        0.99266       -3.59697
H          0.72799        1.02652       -4.12845
H         -0.72829        1.96706       -3.57109
H         -0.12465        1.31492       -1.97962
Rh         0.01733       -0.28139       -1.77968
C         -1.89466        1.44735        0.61324
C         -3.50435       -0.29262       -1.02130
C         -1.97953       -1.41142        1.02007
C          1.88846       -0.98419        1.09510
C          3.46328       -0.10803       -1.12749
C          1.98292        1.79611        0.39881
P          1.80096        0.12487       -0.36172
P         -1.81390       -0.13835       -0.30197
C          0.57441       -2.05777       -2.09213
O          0.92896       -3.13689       -2.29281
C         -1.54510        1.57093        1.96194
H         -1.34055        0.67597        2.55220
C         -2.16135        2.62072       -0.10739
H         -2.42026        2.55690       -1.16845
C         -1.45083        2.82436        2.56243
H         -1.15989        2.89165        3.61464
C         -2.09206        3.86688        0.50459
H         -2.31564        4.76466       -0.07910
C         -1.71997        3.99559        1.84892
C         -1.56696        5.34243        2.48986
H         -2.12655        6.11726        1.94651
H         -1.91345        5.33638        3.53395
H         -0.50583        5.64467        2.50183
C         -3.70904       -1.36167       -1.90501
C         -4.58282        0.54152       -0.70731
C         -6.03363       -0.75329       -2.14575
C         -5.83822        0.31362       -1.27123
C         -4.96517       -1.59485       -2.45715
H         -2.86673       -2.01340       -2.15547
H         -5.10940       -2.43528       -3.14050
H         -7.01820       -0.92995       -2.58545
H         -6.67139        0.97433       -1.01845
H         -4.44629        1.37392       -0.01346
C         -1.14366       -2.52836        0.99949
C         -2.97826       -1.32437        2.00120
C         -2.27049       -3.43851        2.93097
C         -3.11464       -2.32561        2.95740
C         -1.29171       -3.54133        1.94678
H         -0.36989       -2.59815        0.23381
H         -0.62966       -4.40933        1.91373
H         -2.38625       -4.22998        3.67602
H         -3.89325       -2.24591        3.72014
H         -3.65826       -0.46853        2.01191
C          2.38051       -2.28656        0.95098
H          2.81401       -2.60539       -0.00029
C          1.33199       -0.61579        2.32590
H          0.94012        0.39364        2.46202
C          2.31779       -3.18816        2.01051
H          2.70921       -4.20028        1.87460
C          1.27162       -1.52205        3.37826
H          0.82425       -1.21194        4.32683
C          1.75836       -2.82679        3.24090
C          1.64207       -3.80935        4.36759
H          1.98227       -3.37439        5.31976
H          0.59076       -4.11188        4.50815
H          2.23002       -4.71808        4.17671
C          3.55789       -0.06591       -2.52093
C          4.62817       -0.29115       -0.37094
C          5.94995       -0.36380       -2.39230
C          5.86304       -0.42020       -1.00052
C          4.79545       -0.18738       -3.15153
H          2.63591        0.04369       -3.09901
H          4.85503       -0.15385       -4.24205
H          6.92027       -0.46685       -2.88429
H          6.76427       -0.57030       -0.40098
H          4.57073       -0.35483        0.71786
C          1.26157        2.87385       -0.11587
C          2.86788        2.02577        1.46326
C          2.29233        4.37193        1.47150
C          3.01745        3.30149        1.99767
C          1.41579        4.15455        0.41275
H          0.55932        2.69866       -0.93266
H          0.83607        4.98179       -0.00274
H          2.41310        5.37438        1.88997
H          3.70714        3.46193        2.82989
H          3.43653        1.19843        1.89186
