90
Cat32.ts34.5.log	Energy: -1212283.5458863
C         -0.78359       -3.15632       -0.85523
H         -1.09019       -3.88414       -0.09894
H         -1.52194       -3.00279       -1.64904
C          0.60457       -3.08879       -1.19387
H          1.31960       -3.70147       -0.63698
H          0.87790       -2.98297       -2.25014
H          0.93998       -1.49749       -1.19896
Rh        -0.04323       -1.39512        0.09972
C         -1.02981        1.05968       -2.44416
C         -3.13228       -0.58913       -1.45890
C         -2.05291        1.50848        0.19940
C          1.03038        0.81595        2.57054
C          3.16658       -0.72349        1.40783
C          1.98841        1.43917       -0.13837
P          1.53579        0.02638        0.97664
P         -1.51558        0.12742       -0.91422
C         -0.71693       -1.87356        1.79238
O         -1.14126       -2.13718        2.83472
H         -0.27740        1.80146       -2.12845
C         -0.45566        0.16091       -3.52739
H         -1.19345       -0.57805       -3.87754
H          0.41331       -0.39835       -3.14736
H         -1.89647        1.62611       -2.82499
H         -0.13380        0.74486       -4.40347
H         -3.74507        0.19173       -1.94188
H         -2.89255       -1.32591       -2.24419
C         -3.89713       -1.26932       -0.33404
H         -3.22061       -1.97293        0.17960
H         -4.18441       -0.52179        0.42711
C         -5.14321       -2.00481       -0.80592
H         -4.85444       -2.75911       -1.56086
H         -5.81535       -1.30028       -1.32989
C         -5.90543       -2.68733        0.32136
H         -5.22614       -3.38365        0.84380
H         -6.19006       -1.93095        1.07430
C         -7.14365       -3.43315       -0.14879
H         -7.67164       -3.91454        0.68839
H         -6.88368       -4.22083       -0.87438
H         -7.85595       -2.75377       -0.64460
H         -2.32856        1.02584        1.15220
H         -1.13403        2.08005        0.41851
C         -3.15669        2.44697       -0.26464
H         -2.88534        2.90598       -1.23103
H         -4.08079        1.87331       -0.45138
C         -3.45565        3.55003        0.74255
H         -2.53495        4.13294        0.92958
H         -3.72025        3.09349        1.71380
C         -4.56946        4.49184        0.30673
H         -4.30281        4.94093       -0.66661
H         -5.48642        3.90459        0.12166
C         -4.86089        5.59131        1.31517
H         -5.66988        6.25425        0.97275
H         -3.97108        6.21679        1.49253
H         -5.16454        5.17090        2.28744
H          0.88839       -0.03432        3.25831
C          1.91014        1.88113        3.20416
H          1.95653        2.79280        2.59023
H          2.94101        1.53049        3.36451
H          0.01671        1.20569        2.38552
H          1.50943        2.17366        4.18736
H          3.84983        0.05089        1.79602
H          2.95746       -1.41721        2.23965
C          3.80687       -1.47782        0.25257
H          3.09665       -2.24162       -0.10253
H          3.96133       -0.79663       -0.60378
C          5.13246       -2.13041        0.61683
H          4.97961       -2.80778        1.47678
H          5.84209       -1.35852        0.96777
C          5.75926       -2.90737       -0.53257
H          5.04470       -3.67483       -0.87913
H          5.90407       -2.22768       -1.39126
C          7.08166       -3.56366       -0.17057
H          7.50832       -4.11690       -1.02096
H          6.95920       -4.27576        0.66142
H          7.82589       -2.81510        0.14622
H          1.90375        1.03249       -1.15890
H          1.16082        2.16451       -0.04344
C          3.33124        2.13909        0.02595
H          3.45694        2.51073        1.05492
H          4.14762        1.41440       -0.13206
C          3.50517        3.29688       -0.94859
H          2.69748        4.03461       -0.78788
H          3.36816        2.92737       -1.98141
C          4.85435        3.99273       -0.83518
H          4.98765        4.35581        0.19943
H          5.65709        3.25122       -0.99550
C          5.02253        5.14779       -1.80895
H          6.00631        5.62952       -1.70318
H          4.25450        5.92141       -1.64773
H          4.92979        4.80681       -2.85271
