82
Cat307.ts34.5.log	Energy: -1803176.3902266
C          1.10092       -2.78385       -2.70064
H          0.78207       -2.89136       -3.74032
H          2.16703       -2.57670       -2.56658
C          0.41757       -3.52345       -1.69786
H         -0.46497       -4.11402       -1.95740
H          0.99384       -3.93721       -0.86287
H          0.15037       -2.37402       -0.50003
Rh        -0.20589       -1.37918       -1.71598
C          2.96699       -0.88240       -0.39404
O          2.00501        1.24470       -1.79008
O          0.90797        0.66924        0.51635
C         -2.28370        1.10614       -0.31422
O         -3.34482       -1.37859       -0.69387
O         -1.72431       -0.87383        1.24380
P         -1.86839       -0.66147       -0.40322
P          1.42673       -0.03770       -0.89006
C         -1.02912       -0.87961       -3.36594
O         -1.52360       -0.57710       -4.35750
C          2.93302       -1.71987        0.73083
H          2.04134       -1.75195        1.36290
C          4.09893       -0.88701       -1.21544
H          4.11426       -0.27071       -2.11700
C          4.02752       -2.51141        1.05668
H          4.02128       -3.15960        1.93481
C          5.20116       -1.67955       -0.90048
H          6.09539       -1.69419       -1.52620
C          5.15182       -2.47622        0.23671
F          6.20114       -3.23387        0.54410
C          2.50226        2.42109       -1.28515
C          3.87456        2.66810       -1.30850
H          4.54957        1.92112       -1.72691
C          1.62183        3.37411       -0.77105
H          0.55184        3.16245       -0.76531
C          4.36560        3.86291       -0.78533
H          5.44145        4.05328       -0.79990
C          2.12335        4.55907       -0.24207
H          1.43183        5.29205        0.17956
C          3.49581        4.80633       -0.24116
H          3.88649        5.73552        0.17900
C          1.46342        1.37136        1.55007
C          2.83243        1.50026        1.78294
H          3.55532        1.03878        1.11294
C          0.54109        1.98206        2.40398
H         -0.52137        1.86780        2.18100
C          3.26742        2.25560        2.87074
H          4.34101        2.36544        3.04108
C          0.99056        2.72852        3.48843
H          0.26357        3.20889        4.14785
C          2.35756        2.87053        3.72804
H          2.71139        3.46163        4.57529
C         -2.97707        1.65797        0.77286
H         -3.28285        1.01937        1.60306
C         -1.88155        1.93703       -1.36416
H         -1.31189        1.51703       -2.19673
C         -3.26752        3.01667        0.80603
H         -3.80556        3.46674        1.64207
C         -2.17095        3.29920       -1.34386
H         -1.85983        3.96309       -2.15220
C         -2.86095        3.81901       -0.25584
F         -3.13438        5.11949       -0.22299
C         -4.50572       -0.99670       -0.06852
C         -5.37028       -0.11821       -0.72103
H         -5.09634        0.25562       -1.70923
C         -4.81882       -1.49588        1.19611
H         -4.13082       -2.18604        1.68695
C         -6.55297        0.27012       -0.09691
H         -7.22954        0.96007       -0.60665
C         -6.00405       -1.09858        1.81229
H         -6.25097       -1.48750        2.80307
C         -6.87166       -0.21413        1.17179
H         -7.79903        0.09402        1.65956
C         -1.08821       -1.92542        1.83159
C         -1.32811       -3.24506        1.43899
H         -2.03535       -3.44879        0.63250
C         -0.18910       -1.64481        2.86177
H         -0.01584       -0.60437        3.14153
C         -0.64833       -4.28228        2.07615
H         -0.83274       -5.31314        1.76459
C          0.47568       -2.69133        3.49661
H          1.17928       -2.46811        4.30231
C          0.25587       -4.01215        3.10244
H          0.78300       -4.82958        3.59910
