104
Cat373.ts34.5.log	Energy: -1452746.1532780
C         -0.71687       -3.56543       -1.20965
H         -0.80761       -4.41578       -0.52825
H         -1.60427       -3.39448       -1.82829
C          0.56843       -3.29359       -1.77714
H          1.43631       -3.87400       -1.45055
H          0.62394       -3.02431       -2.83837
H          0.69360       -1.67212       -1.62615
Rh         0.03874       -1.87193       -0.15416
C         -1.06673        1.07738       -1.72933
C         -3.13400       -0.90253       -1.54282
C         -2.35148        0.56556        0.80873
C          1.07607        0.88007        1.73789
C          3.11239       -1.10407        1.43245
C          2.40986        0.58327       -0.81625
P          1.65536       -0.39195        0.54936
P         -1.62873       -0.29835       -0.65115
C         -0.24031       -2.62786        1.55016
O         -0.41692       -3.06310        2.60667
C         -0.92036        2.39869       -1.29441
H         -1.26524        2.69407       -0.30294
C         -0.59437        0.75882       -3.01344
H         -0.66701       -0.27191       -3.37273
C         -0.30043        3.35559       -2.10059
H         -0.18746        4.37726       -1.72590
C          0.00571        1.71691       -3.81897
H          0.36687        1.43472       -4.81233
C          0.18035        3.03607       -3.37187
C          0.87901        4.05119       -4.22726
H          1.94733        3.80347       -4.33910
H          0.44876        4.08828       -5.24010
H          0.81344        5.05854       -3.79277
H         -2.77708       -1.36319       -2.47981
H         -3.76411       -0.04537       -1.82750
C         -3.89774       -1.92769       -0.71419
H         -3.17197       -2.61999       -0.25424
H         -4.40461       -1.42156        0.12735
C         -4.93555       -2.73711       -1.49425
H         -4.40218       -3.24181       -2.32265
C         -5.54186       -3.81597       -0.60481
H         -4.76515       -4.47659       -0.18941
H         -6.25769       -4.44170       -1.16030
H         -6.08312       -3.36476        0.24376
C         -6.02009       -1.85526       -2.10290
H         -6.76163       -2.45668       -2.65155
H         -5.60676       -1.11718       -2.80663
H         -6.55869       -1.30117       -1.31517
H         -1.51711        1.12479        1.26151
H         -2.56907       -0.23967        1.52749
C         -3.56100        1.46714        0.59352
H         -3.44854        2.03919       -0.34268
H         -4.46780        0.85125        0.45727
C         -3.80150        2.45570        1.73856
H         -2.89362        3.08475        1.82034
C         -4.97952        3.36808        1.42024
H         -4.83119        3.89937        0.46698
H         -5.12978        4.12312        2.20774
H         -5.91316        2.78717        1.33485
C         -3.99413        1.75150        3.07688
H         -4.20067        2.47648        3.88008
H         -3.10325        1.17525        3.36815
H         -4.84816        1.05432        3.03448
C          0.57392        0.45528        2.97846
H          0.60826       -0.60291        3.24896
C          0.97783        2.23874        1.42298
H          1.34365        2.61224        0.46612
C         -0.01107        1.35544        3.85957
H         -0.40033        0.99275        4.81520
C          0.37896        3.13696        2.30740
H          0.30533        4.19224        2.02898
C         -0.13253        2.71515        3.53663
C         -0.80875        3.66951        4.47550
H         -0.71381        4.70923        4.13256
H         -1.88339        3.44017        4.56031
H         -0.38384        3.60393        5.48906
H          2.72009       -1.54306        2.36493
H          3.79270       -0.28632        1.71840
C          3.80496       -2.17562        0.60468
H          3.03472       -2.88926        0.26470
H          4.22905       -1.72633       -0.31290
C          4.91406       -2.93644        1.33378
H          4.46723       -3.37173        2.24761
C          5.42087       -4.08445        0.46855
H          4.60333       -4.76633        0.18736
H          6.18922       -4.67511        0.99123
H          5.87164       -3.70280       -0.46310
C          6.06141       -2.02638        1.75846
H          6.85375       -2.59614        2.26842
H          5.72990       -1.23451        2.44683
H          6.51673       -1.53745        0.88012
H          1.58700        1.19104       -1.22801
H          2.62903       -0.15807       -1.59945
C          3.63134        1.43732       -0.50143
H          3.52504        1.90971        0.48948
H          4.52656        0.79380       -0.42917
C          3.89009        2.53704       -1.53580
H          2.99617        3.19076       -1.54455
C          5.08947        3.38352       -1.12810
H          4.95688        3.81157       -0.12208
H          5.25280        4.21597       -1.83017
H          6.01037        2.77683       -1.11226
C          4.06120        1.97708       -2.94348
H          4.28263        2.78018       -3.66395
H          3.15463        1.45918       -3.29097
H          4.89805        1.25907       -2.98200
