86
Cat39.ts34.5.log	Energy: -1586064.4699710
C          0.38176       -3.59634        1.03782
H          0.40436       -4.39769        0.29406
H          1.25474       -3.57004        1.69735
C         -0.88882       -3.20945        1.56392
H         -1.80347       -3.65982        1.16763
H         -0.96414       -2.99631        2.63686
H         -0.88815       -1.58856        1.49287
Rh        -0.13568       -1.75968        0.05782
C          1.73239        0.11083        2.55158
C          3.33149       -1.00930        0.48343
C          1.75331        1.25049       -0.07806
C         -1.75096        0.15893       -2.46027
C         -3.43029       -0.76667       -0.33135
C         -1.63734        1.40238        0.16008
P         -1.70398       -0.23648       -0.65282
P          1.62811       -0.37262        0.76843
C          0.23280       -2.40797       -1.66890
O          0.45579       -2.77003       -2.74350
H          0.84146        0.72728        2.75501
C          1.77041       -1.10161        3.46628
H          2.64177       -1.73878        3.24826
H          0.86682       -1.71652        3.34498
H          2.61816        0.74644        2.71708
H          1.83323       -0.79804        4.52245
C          4.46576       -0.22208        0.74453
H          4.34624        0.80395        1.10429
C          3.52468       -2.29661       -0.01423
H          2.64709       -2.90762       -0.23822
C          5.74193       -0.71364        0.52963
H          6.62864       -0.10715        0.72442
C          4.80462       -2.80796       -0.23820
H          4.91268       -3.81913       -0.63124
C          5.92300       -2.01629        0.03730
O          7.19930       -2.40978       -0.14272
C          7.44374       -3.69297       -0.64528
H          7.00696       -3.83103       -1.65018
H          8.53357       -3.80231       -0.71420
H          7.04805       -4.47860        0.02261
C          1.72276        1.24778       -1.48331
H          1.62578        0.29344       -2.00951
C          1.87000        2.47889        0.57080
H          1.88266        2.53208        1.66053
C          1.80804        2.42516       -2.20644
H          1.78806        2.42679       -3.29818
C          1.95633        3.67573       -0.14509
H          2.03684        4.61473        0.40335
C          1.92033        3.65535       -1.54001
O          1.97596        4.75528       -2.32239
C          2.12622        6.00403       -1.71344
H          3.05688        6.06578       -1.12175
H          2.16800        6.74753       -2.51970
H          1.27432        6.24649       -1.05190
H         -1.58138       -0.80666       -2.96084
C         -3.00869        0.82100       -2.99911
H         -3.24615        1.76048       -2.47849
H         -3.88043        0.16017       -2.88717
H         -0.84552        0.75640       -2.65856
H         -2.89471        1.05055       -4.07021
C         -4.45480        0.11313        0.04938
H         -4.23127        1.17040        0.21090
C         -3.75151       -2.11178       -0.52684
H         -2.95281       -2.80538       -0.80790
C         -5.75205       -0.34210        0.23163
H         -6.55422        0.33313        0.53576
C         -5.05382       -2.58098       -0.36189
H         -5.26507       -3.63796       -0.52600
C         -6.06496       -1.69314        0.02481
O         -7.35043       -2.04446        0.22438
C         -7.72271       -3.38002        0.03261
H         -7.18606       -4.05928        0.71846
H         -8.79794       -3.44088        0.24359
H         -7.54390       -3.71205       -1.00545
C         -1.70090        1.44592        1.56326
H         -1.82460        0.51417        2.12241
C         -1.45494        2.60486       -0.52180
H         -1.36860        2.61857       -1.60871
C         -1.59861        2.64326        2.25115
H         -1.64828        2.68042        3.34116
C         -1.34901        3.81977        0.15686
H         -1.19121        4.73197       -0.41837
C         -1.41701        3.84550        1.55084
O         -1.30769        4.96232        2.30007
C         -1.14073        6.19066        1.65293
H         -1.98932        6.42403        0.98564
H         -1.08420        6.95661        2.43683
H         -0.20902        6.21949        1.05955
