88
Cat367.ts34.5.log	Energy: -1976972.9756799
C          0.75075       -3.58466        0.86639
H          0.76378       -4.35380        0.09065
H          1.70987       -3.43036        1.36885
C         -0.45351       -3.35660        1.58385
H         -1.36914       -3.88610        1.30701
H         -0.39281       -3.12101        2.65175
H         -0.66764       -1.71418        1.53839
Rh        -0.10946       -1.78960        0.02189
C          1.82282        0.37087        2.17679
O          3.18384       -0.92514        0.38534
O          1.64245        0.98089       -0.44634
C         -1.95032        0.36464       -2.10063
O         -3.34261       -0.86495       -0.24637
O         -1.72941        0.97858        0.52355
P         -1.75773       -0.37972       -0.46609
P          1.60445       -0.38940        0.54076
C          0.04062       -2.46021       -1.76015
O          0.13439       -2.85171       -2.83493
C          0.66741        0.78008        2.85104
H         -0.31133        0.60083        2.39755
C          3.07476        0.62397        2.74891
H          3.97903        0.31206        2.22404
C          0.76639        1.44372        4.07035
H         -0.14399        1.77030        4.58066
C          3.16128        1.27931        3.97185
H          4.14545        1.47629        4.40628
C          2.01239        1.70233        4.65351
C          2.11825        2.38873        5.98299
H          2.23733        1.65203        6.79508
H          2.99064        3.05753        6.02187
H          1.21909        2.98061        6.20535
C          3.57127       -1.76181       -0.62145
C          4.37332       -2.85421       -0.28823
H          4.64511       -3.00787        0.75759
C          3.20507       -1.54109       -1.95121
H          2.57796       -0.68587       -2.20615
C          4.80971       -3.72755       -1.27919
H          5.43735       -4.58869       -1.04319
C          3.63006       -2.42062       -2.94422
H          3.34152       -2.27761       -3.98667
C          4.42734       -3.50280       -2.59729
F          4.83828       -4.34408       -3.54650
C          2.47642        2.04058       -0.19504
C          3.78331        2.03731       -0.68313
H          4.14174        1.17966       -1.25457
C          2.00291        3.12543        0.54491
H          0.98468        3.09885        0.93573
C          4.61902        3.12336       -0.43378
H          5.64538        3.14807       -0.80415
C          2.83433        4.21226        0.79611
H          2.48971        5.07035        1.37565
C          4.13436        4.19631        0.30434
F          4.93493        5.23471        0.54659
C         -3.19559        0.61506       -2.68634
H         -4.10616        0.30237       -2.17299
C         -0.78417        0.77201       -2.75825
H          0.18810        0.59792       -2.28918
C         -3.26539        1.26714       -3.91219
H         -4.24341        1.46302       -4.36039
C         -0.86817        1.42769       -3.98193
H          0.04876        1.75027       -4.48255
C         -2.10725        1.68475       -4.58094
C         -2.19390        2.36349       -5.91549
H         -1.31591        2.99747       -6.10419
H         -2.24283        1.61948       -6.72818
H         -3.09537        2.98868       -5.99176
C         -3.66681       -1.75342        0.74097
C         -4.18977       -2.99395        0.37738
H         -4.31462       -3.22247       -0.68219
C         -3.47662       -1.43700        2.08775
H         -3.05361       -0.46813        2.35832
C         -4.53242       -3.91980        1.35862
H         -4.94380       -4.89732        1.10087
C         -3.81130       -2.36334        3.07259
H         -3.66968       -2.14287        4.13207
C         -4.33543       -3.59376        2.69603
F         -4.65694       -4.48095        3.63693
C         -2.45044        2.10938        0.23207
C         -3.78941        2.21357        0.60820
H         -4.27206        1.37969        1.11952
C         -1.82123        3.15911       -0.43849
H         -0.77860        3.04588       -0.73879
C         -4.50203        3.37426        0.31591
H         -5.55063        3.48425        0.59789
C         -2.52943        4.31972       -0.73252
H         -2.06233        5.15319       -1.25987
C         -3.86339        4.41181       -0.35214
F         -4.54595        5.52128       -0.63515
