104
Cat380.ts34.5.log	Energy: -1452736.0943137
C         -0.00372        3.34037       -0.43777
H          0.04576        3.84518       -1.40650
H         -0.88037        3.61343        0.15840
C          1.22359        3.07352        0.24756
H          2.17610        3.28549       -0.24702
H          1.27047        3.25490        1.32831
H          0.98217        1.55595        0.78654
Rh         0.36185        1.25131       -0.67175
C         -1.18552       -0.84705        1.67299
C         -2.72346        1.63258        1.13364
C         -2.76061       -0.52289       -0.71166
C          0.94261       -2.22165       -1.31192
C          3.19832       -0.56196       -1.70399
C          2.37299       -1.11877        1.03070
P          1.69317       -0.65961       -0.63100
P         -1.57074        0.39661        0.36556
C          0.24800        1.38214       -2.55072
O          0.19582        1.51083       -3.69748
C         -1.17683       -2.20428        1.30755
H         -1.50845       -2.50309        0.31261
C         -0.70440       -0.49299        2.95561
C         -0.62933        0.93037        3.42728
H         -1.61970        1.32062        3.70729
H         -0.22790        1.58751        2.64011
H          0.02118        1.01394        4.30876
C         -0.72390       -3.19580        2.17316
H         -0.72819       -4.23858        1.84698
C         -0.26020       -1.50572        3.81403
H          0.11023       -1.22422        4.80396
C         -0.26503       -2.84716        3.44027
H          0.09403       -3.61134        4.13354
H         -3.42437        1.13857        1.82669
H         -2.10888        2.31979        1.73205
C         -3.46852        2.43631        0.07253
H         -2.76900        2.70014       -0.74050
H         -4.25171        1.81522       -0.39305
C         -4.10364        3.70474        0.62486
H         -3.31669        4.34112        1.07001
H         -4.78404        3.44535        1.45667
C         -4.86424        4.50577       -0.42241
H         -4.17904        4.75184       -1.25274
H         -5.65030        3.86809       -0.86460
C         -5.48615        5.78031        0.12458
H         -6.02765        6.33638       -0.65565
H         -4.71805        6.45286        0.53936
H         -6.20132        5.56106        0.93390
H         -2.99666        0.17879       -1.52864
H         -2.19226       -1.33006       -1.19456
C         -4.02808       -1.07167       -0.07283
H         -3.76958       -1.67786        0.81180
H         -4.65285       -0.24422        0.30430
C         -4.84762       -1.91738       -1.03883
H         -4.22297       -2.75136       -1.40880
H         -5.09849       -1.31567       -1.93171
C         -6.12557       -2.47543       -0.42876
H         -5.86780       -3.06935        0.46603
H         -6.74576       -1.63855       -0.06119
C         -6.93479       -3.32688       -1.39361
H         -7.85121       -3.71585       -0.92436
H         -6.35071       -4.19110       -1.74920
H         -7.23580       -2.74782       -2.28159
C         -0.07697       -1.98960       -2.24560
H         -0.35174       -0.95511       -2.45734
C          1.30961       -3.56158       -1.03748
C          2.42564       -3.97618       -0.12048
H          2.16929       -3.81383        0.93682
H          3.35380       -3.42410       -0.32288
H          2.64149       -5.04552       -0.24902
C         -0.76198       -3.02332       -2.87784
H         -1.55038       -2.79392       -3.59851
C          0.59001       -4.58892       -1.66412
H          0.86288       -5.62371       -1.43897
C         -0.43839       -4.33895       -2.56750
H         -0.97029       -5.17096       -3.03524
H          3.76055       -1.50966       -1.63658
H          2.80529       -0.49655       -2.73258
C          4.09006        0.63347       -1.40921
H          3.45540        1.53569       -1.36560
H          4.54169        0.52711       -0.40728
C          5.19560        0.82898       -2.43685
H          4.74201        0.94719       -3.43759
H          5.81518       -0.08484       -2.49497
C          6.08773        2.02673       -2.14175
H          5.46101        2.93393       -2.07901
H          6.53629        1.90533       -1.13951
C          7.18591        2.23271       -3.17239
H          7.81239        3.10500       -2.93160
H          6.76420        2.39348       -4.17762
H          7.84812        1.35379       -3.23190
H          1.62308       -1.76868        1.50830
H          3.27785       -1.72334        0.87508
C          2.69728        0.03207        1.96951
H          3.35917        0.76511        1.47884
H          1.77007        0.57668        2.19852
C          3.32925       -0.44558        3.26878
H          4.28626       -0.95585        3.05403
H          2.67597       -1.21156        3.72423
C          3.56675        0.67641        4.26950
H          4.21468        1.44297        3.80863
H          2.60704        1.18440        4.47231
C          4.18096        0.20244        5.57647
H          4.33800        1.03444        6.27963
H          5.15778       -0.27877        5.40743
H          3.53441       -0.53774        6.07536
