60
Cat353.ts34.5.log	Energy: -1247072.9630914
C         -1.35437       -3.60962       -0.55803
H         -2.33355       -3.75986       -1.01983
H         -0.50093       -3.95023       -1.14993
C         -1.26983       -3.62772        0.86146
H         -2.17967       -3.71884        1.46105
H         -0.39759       -4.09710        1.32807
H         -0.37028       -2.26594        1.24388
Rh        -1.16825       -1.54911        0.03106
C          2.27549       -0.51683       -0.25565
O          1.36471       -2.49619       -1.86672
O          0.79885       -0.03603       -2.33027
C         -1.12263        1.88437        0.45338
O         -2.61365        0.62402        2.18018
O         -0.05216        0.37241        2.43152
P         -1.25149        0.28790        1.31325
P          0.78281       -1.15035       -1.10587
C         -2.70596       -1.04590       -0.96218
O         -3.63388       -0.72922       -1.56644
C          3.13610        0.42951       -0.82709
H          2.91586        0.81141       -1.82587
C          2.54705       -0.97929        1.03461
H          1.86148       -1.68881        1.50457
C          4.24196        0.89162       -0.12156
H          4.90370        1.63147       -0.58181
C          3.66029       -0.51848        1.73247
H          3.85550       -0.89220        2.74150
C          4.52437        0.42743        1.17062
C          5.70035        0.95794        1.93707
H          5.98602        0.28361        2.75679
H          6.57580        1.09754        1.28546
H          5.46874        1.93984        2.38283
C          2.54262       -2.47043       -2.63985
H          2.48499       -1.70687       -3.43268
H          3.43061       -2.26680       -2.01731
H          2.65229       -3.46057       -3.10409
C         -0.39030        0.33171       -2.99192
H         -0.92241       -0.54248       -3.40067
H         -1.06918        0.87708       -2.31700
H         -0.10440        0.99495       -3.82035
C         -2.25768        2.59143        0.04841
H         -3.24497        2.25013        0.36608
C          0.14004        2.32906        0.04224
H          1.03573        1.77855        0.34015
C         -2.12834        3.71831       -0.76003
H         -3.02545        4.25798       -1.07626
C          0.25904        3.45794       -0.75972
H          1.25305        3.78675       -1.07601
C         -0.87197        4.17111       -1.17892
C         -0.73404        5.39831       -2.03131
H         -0.49301        6.28024       -1.41437
H          0.07533        5.28765       -2.76811
H         -1.66432        5.62074       -2.57303
C         -3.38258       -0.42587        2.72567
H         -3.35911       -1.30936        2.06389
H         -3.00626       -0.71489        3.72113
H         -4.41668       -0.06737        2.82532
C          0.03511        1.45539        3.33411
H          0.21693        2.40671        2.80765
H         -0.88735        1.55402        3.92791
H          0.88134        1.24980        4.00363
