90
Cat304.ts34.5.log	Energy: -1713030.7772787
C         -0.72284        1.80598       -2.96240
H         -0.27762        1.54581       -3.92628
H         -1.81508        1.86347       -2.95462
C          0.00479        2.62392       -2.07176
H          1.01302        2.96444       -2.32464
H         -0.55316        3.32564       -1.43988
H          0.05124        1.79506       -0.60320
Rh         0.13993        0.46480       -1.47591
C         -2.23025        1.58897        0.60879
C         -3.42989       -0.25387       -1.27839
C         -2.10673       -1.30559        0.98775
C          1.61839       -1.08082        1.27269
C          3.32279       -0.86041       -1.09293
C          2.88212        1.40539        0.66463
P          1.98611        0.00615       -0.16119
P         -1.89048        0.01731       -0.28441
C          0.52253       -0.91287       -2.71638
O          0.76693       -1.75697       -3.46032
C         -1.32470        2.01575        1.59659
H         -0.50118        1.36262        1.89761
C         -3.22251        2.48199        0.18965
H         -3.92430        2.18552       -0.59323
C         -1.42802        3.27488        2.17450
H         -0.72737        3.60857        2.94220
C         -3.32784        3.75592        0.74984
H         -4.09695        4.45865        0.42413
C         -2.43411        4.13405        1.74082
F         -2.52964        5.34759        2.28175
C         -3.24641       -0.39568       -2.65963
H         -2.22972       -0.32228       -3.05170
C         -4.73030       -0.39262       -0.73545
C         -5.03981       -0.34156        0.73273
H         -4.45596        0.42011        1.26355
H         -4.80995       -1.30667        1.21161
H         -6.10710       -0.13269        0.89194
C         -4.31123       -0.64710       -3.51932
H         -4.13435       -0.75637       -4.59164
C         -5.78925       -0.63347       -1.62147
H         -6.79819       -0.73246       -1.21138
C         -5.59460       -0.75946       -2.99396
H         -6.44771       -0.95151       -3.64940
C         -2.18629       -1.01894        2.35632
H         -2.10580        0.01248        2.70038
C         -2.22408       -2.64849        0.56058
C         -2.08555       -3.05903       -0.87580
H         -1.32808       -2.45513       -1.39761
H         -3.02885       -2.92986       -1.42927
H         -1.79664       -4.11717       -0.94905
C         -2.41249       -2.01867        3.29655
H         -2.46728       -1.76349        4.35725
C         -2.48161       -3.63366        1.52165
H         -2.58925       -4.66993        1.18792
C         -2.58043       -3.33505        2.87669
H         -2.76795       -4.12914        3.60281
C          1.04834       -2.33939        1.03117
H          0.85484       -2.65697        0.00360
C          1.77699       -0.66234        2.59925
H          2.20395        0.31942        2.81442
C          0.71010       -3.18567        2.07840
H          0.27793       -4.17011        1.90045
C          1.39258       -1.48146        3.65944
H          1.49507       -1.15803        4.69681
C          0.87208       -2.73743        3.38343
F          0.49880       -3.52593        4.38996
C          3.65900       -2.19284       -0.82737
H          3.17894       -2.71925       -0.00165
C          3.97794       -0.17852       -2.14514
C          3.67288        1.24650       -2.49369
H          4.01144        1.93981       -1.70767
H          2.58276        1.38376       -2.59178
H          4.15951        1.53270       -3.43591
C          4.62214       -2.86117       -1.57657
H          4.86471       -3.90077       -1.34464
C          4.94752       -0.86957       -2.88095
H          5.45530       -0.34401       -3.69429
C          5.27295       -2.19525       -2.61059
H          6.03180       -2.70530       -3.20862
C          2.23294        2.64407        0.71979
H          1.24818        2.73865        0.26369
C          4.15935        1.27692        1.26731
C          4.95268        0.00300        1.31047
H          5.42439       -0.21190        0.33968
H          4.32930       -0.86582        1.55824
H          5.74874        0.08004        2.06399
C          2.80266        3.75389        1.33647
H          2.26015        4.70171        1.35995
C          4.71897        2.41024        1.87302
H          5.70406        2.31494        2.33777
C          4.06294        3.63686        1.91146
H          4.53603        4.49423        2.39632
