74
Cat323.ts34.5.log	Energy: -1782876.2734629
C         -0.11107       -4.02421       -0.42190
H         -1.03968       -4.59361       -0.51547
H          0.58511       -4.17014       -1.25362
C          0.42298       -3.82099        0.88643
H         -0.13862       -4.15944        1.76195
H          1.50700       -3.91028        1.02645
H          0.81521       -2.22786        0.89069
Rh        -0.57121       -2.00028        0.09330
C          2.03987        0.16441       -0.68886
C          1.76527       -1.95571       -2.61979
C         -0.13545        0.41457       -2.59297
C         -1.52699        1.26983        0.67326
C         -2.52737       -0.58244        2.63103
C          0.38987        0.33087        2.63879
P         -1.02014       -0.25974        1.56433
P          0.73756       -0.83993       -1.51447
C         -2.38135       -2.22131       -0.36244
O         -3.50028       -2.36115       -0.62107
C          2.08505        1.56347       -0.68627
H          1.38097        2.14090       -1.28469
C          2.97909       -0.51774        0.10381
H          2.96145       -1.61030        0.13943
C          3.00557        2.25999        0.09790
H          3.02011        3.35143        0.10156
C          3.91282        0.15829        0.87736
H          4.63114       -0.38594        1.49260
C          3.91179        1.55487        0.88316
Cl         5.04156        2.41015        1.87911
H          2.10543       -2.71188       -1.88868
C          0.86578       -2.67075       -3.62335
H          1.39199       -3.53312       -4.06275
H         -0.05946       -3.03544       -3.15252
H          0.58543       -2.00327       -4.45223
C          3.00394       -1.36365       -3.28045
H          3.65284       -0.84668       -2.55921
H          3.59684       -2.16874       -3.74561
H          2.74610       -0.64911       -4.07346
H         -0.39369        1.18419       -1.84440
C          0.68473        1.06476       -3.70311
H          0.14600        1.94088       -4.09997
H          1.67574        1.40297       -3.36969
H          0.83365        0.37047       -4.54352
C         -1.45898       -0.11659       -3.13252
H         -2.05931       -0.57847       -2.33891
H         -2.04033        0.71248       -3.56654
H         -1.30935       -0.86751       -3.92193
C         -2.69791        1.21818       -0.10092
H         -3.31682        0.31840       -0.09962
C         -0.75869        2.43857        0.61745
H          0.15963        2.52722        1.19675
C         -3.08228        2.28012       -0.90961
H         -3.98937        2.22191       -1.51309
C         -1.12434        3.50886       -0.19842
H         -0.51027        4.41006       -0.24324
C         -2.28176        3.42176       -0.96604
Cl        -2.72868        4.73364       -2.00357
H         -3.24340       -0.91163        1.85791
C         -2.28714       -1.77668        3.54661
H         -3.23986       -2.12721        3.97364
H         -1.83018       -2.60959        2.99094
H         -1.62742       -1.51451        4.38818
C         -3.14661        0.60112        3.36369
H         -3.25250        1.48311        2.71524
H         -4.15340        0.32703        3.71873
H         -2.56156        0.89447        4.24535
H          1.06399        0.76533        1.87884
C          0.04694        1.40292        3.67050
H          0.97313        1.88021        4.02944
H         -0.60930        2.19278        3.28084
H         -0.44788        0.95901        4.54676
C          1.15924       -0.80800        3.29840
H          1.46274       -1.56987        2.56925
H          2.06983       -0.40787        3.77163
H          0.56662       -1.30505        4.08064
