100
Cat368.ts34.5.log	Energy: -1826602.7912621
C         -0.04177        0.31407        3.72478
H         -0.73142       -0.36222        4.23707
H          0.98963        0.29966        4.08514
C         -0.53189        1.45865        3.08182
H         -1.59912        1.69426        3.13078
H          0.12057        2.33031        2.97184
H         -0.63296        1.33329        1.41299
Rh        -0.05910       -0.17292        1.54532
C          1.57717        2.32189       -0.32513
O          3.25013        1.01808        1.13379
O          2.17972       -0.33682       -0.77855
C         -1.59976       -2.10550       -0.92511
O         -3.35176       -1.20170        0.72144
O         -2.19036        0.58289       -0.71608
P         -1.81023       -0.73193        0.25112
P          1.74505        0.68915        0.46790
C          0.52972       -1.95738        1.73505
O          0.89224       -3.04283        1.80299
C          0.38936        2.56923       -1.02558
H         -0.40243        1.81529       -1.04245
C          2.56726        3.30907       -0.29145
H          3.49534        3.11931        0.24814
C          0.21062        3.77385       -1.69701
H         -0.71779        3.94411       -2.24975
C          2.37068        4.51701       -0.95523
H          3.15307        5.28048       -0.92136
C          1.19494        4.77109       -1.67154
C          0.97772        6.08300       -2.36556
H          1.92931        6.58849       -2.58303
H          0.43121        5.95214       -3.31108
H          0.37934        6.76323       -1.73654
C          4.07062        0.11041        1.74847
C          3.59628       -0.78519        2.70572
H          2.54013       -0.76393        2.97214
C          5.42976        0.14372        1.39158
C          5.93553        1.15136        0.40680
H          5.37673        1.10731       -0.53908
H          5.82328        2.17507        0.79922
H          6.99885        0.98498        0.18859
C          4.46685       -1.70152        3.29247
H          4.08456       -2.41022        4.03049
C          6.27910       -0.78468        1.99925
H          7.33766       -0.77877        1.72527
C          5.81149       -1.70898        2.93288
H          6.50015       -2.42719        3.38320
C          3.29178       -0.28578       -1.57992
C          3.50211        0.77031       -2.46581
H          2.77906        1.58440       -2.51165
C          4.16714       -1.38356       -1.52085
C          3.88204       -2.53577       -0.60808
H          2.86066       -2.91787       -0.75605
H          4.59279       -3.35502       -0.78018
H          3.95475       -2.23977        0.44961
C          4.63312        0.77024       -3.28045
H          4.80212        1.60172       -3.96848
C          5.29051       -1.35506       -2.35208
H          5.98774       -2.19658       -2.31654
C          5.53490       -0.28917       -3.21720
H          6.42424       -0.29438       -3.85139
C         -2.59712       -3.04382       -1.21292
H         -3.55731       -2.98136       -0.70037
C         -0.36977       -2.19110       -1.58843
H          0.42605       -1.47807       -1.35742
C         -2.36406       -4.04153       -2.15454
H         -3.15177       -4.76897       -2.37028
C         -0.15251       -3.18635       -2.53550
H          0.81163       -3.23202       -3.04997
C         -1.14238       -4.13131       -2.83346
C         -0.88673       -5.22849       -3.82371
H         -0.21999       -4.89469       -4.63203
H         -0.39980       -6.08858       -3.33411
H         -1.82106       -5.59377       -4.27355
C         -4.13938       -0.56635        1.63956
C         -3.63368       -0.13492        2.86488
H         -2.58695       -0.33645        3.09113
C         -5.49767       -0.40814        1.31462
C         -6.04856       -0.97123        0.04150
H         -5.45308       -0.66722       -0.83007
H         -6.03700       -2.07330        0.06761
H         -7.08587       -0.64622       -0.11462
C         -4.46401        0.52947        3.76539
H         -4.06052        0.87068        4.72186
C         -6.30609        0.26134        2.23775
H         -7.36285        0.40463        1.99591
C         -5.80254        0.74259        3.44579
H         -6.46056        1.26689        4.14221
C         -3.29650        0.77060       -1.49953
C         -3.52059        0.00207       -2.64086
H         -2.81497       -0.78708       -2.90159
C         -4.15454        1.82367       -1.13964
C         -3.86166        2.65326        0.07276
H         -3.93931        2.05427        0.99414
H         -2.83669        3.05413        0.03957
H         -4.56611        3.49191        0.15358
C         -4.64255        0.25407       -3.42869
H         -4.82383       -0.35229       -4.31910
C         -5.26649        2.05686       -1.95324
H         -5.94880        2.86928       -1.68862
C         -5.52023        1.27894       -3.08252
H         -6.40052        1.48072       -3.69689
