94
Cat345.ts34.5.log	Energy: -2353855.1967723
C          1.56532       -2.53459       -2.33572
H          1.34836       -2.61642       -3.40406
H          2.61626       -2.36602       -2.08636
C          0.73682       -3.23055       -1.42016
H         -0.13675       -3.78681       -1.77244
H          1.19629       -3.65403       -0.51997
H          0.29767       -2.07430       -0.23913
Rh         0.22148       -1.06567       -1.48534
C          1.41338        1.59180        0.62935
C          2.66426       -1.00280        0.96731
C          3.30380        0.79014       -1.28163
C         -2.67351        0.95430       -0.71641
C         -3.07043       -1.86558       -0.71491
C         -1.55555       -0.56125        1.44099
P         -1.75213       -0.61034       -0.38556
P          1.91365        0.08467       -0.30675
C         -0.17373       -0.39647       -3.20455
O         -0.39448       -0.05413       -4.28654
C          0.51030        2.43306       -0.02932
H          0.16650        2.15618       -1.02765
C          1.84963        1.95049        1.90854
H          2.57382        1.32580        2.43187
C          0.01816        3.58574        0.57318
H         -0.70450        4.22150        0.05855
C          1.35542        3.09179        2.53388
H          1.67651        3.35993        3.54195
C          0.43282        3.89695        1.86723
Cl        -0.21909        5.29077        2.66713
C          1.99542       -1.17883        2.18111
H          1.10343       -0.58530        2.38872
C          3.77994       -1.82276        0.69923
O          4.35802       -1.67615       -0.51038
C          5.52852       -2.37500       -0.81832
H          6.33828       -2.14854       -0.10256
H          5.83277       -2.04103       -1.81844
H          5.36357       -3.46679       -0.83791
C          2.43355       -2.09867        3.13331
H          1.89018       -2.19925        4.07508
C          4.22752       -2.74272        1.65295
H          5.09725       -3.36724        1.44734
C          3.55677       -2.87519        2.86881
H          3.91747       -3.59870        3.60397
C          3.19596        0.81509       -2.66914
H          2.30475        0.37294       -3.12053
C          4.45311        1.34268       -0.67952
O          4.51795        1.27336        0.66381
C          5.61843        1.81585        1.33343
H          6.56036        1.31668        1.04523
H          5.44445        1.65110        2.40451
H          5.71750        2.89968        1.14877
C          4.19365        1.37898       -3.46694
H          4.08542        1.39007       -4.55328
C          5.45624        1.90709       -1.47127
H          6.34758        2.33809       -1.01452
C          5.31961        1.92274       -2.86110
H          6.11084        2.36976       -3.46832
C         -3.76653        1.35432        0.06666
H         -4.08425        0.73023        0.90272
C         -2.29904        1.75717       -1.79594
H         -1.45795        1.45635       -2.42156
C         -4.44743        2.53498       -0.20699
H         -5.29168        2.84982        0.40856
C         -2.97521        2.93973       -2.08774
H         -2.67498        3.56163       -2.93245
C         -4.04317        3.32643       -1.28275
Cl        -4.88077        4.80449       -1.61885
C         -2.98005       -2.55893       -1.92178
H         -2.13130       -2.32750       -2.57280
C         -4.13710       -2.17364        0.15512
O         -4.20964       -1.48404        1.31288
C         -5.10671       -1.88224        2.30938
H         -6.15749       -1.73714        2.00270
H         -4.89788       -1.25171        3.18325
H         -4.95896       -2.94016        2.58763
C         -3.91299       -3.53037       -2.28406
H         -3.81876       -4.05106       -3.23909
C         -5.06183       -3.16338       -0.19149
H         -5.88180       -3.41082        0.48315
C         -4.94950       -3.83345       -1.40956
H         -5.68529       -4.59934       -1.66729
C         -1.48491        0.64226        2.14102
H         -1.60619        1.58353        1.60390
C         -1.35401       -1.76275        2.15222
O         -1.37333       -2.89168        1.41956
C         -1.03207       -4.11236        2.01250
H         -0.02094       -4.07630        2.45384
H         -1.05045       -4.86085        1.21044
H         -1.75776       -4.40746        2.79073
C         -1.24846        0.67190        3.51708
H         -1.18646        1.63221        4.03239
C         -1.14739       -1.74227        3.53321
H         -1.00955       -2.67333        4.08327
C         -1.09478       -0.52257        4.21104
H         -0.92121       -0.51638        5.28991
