96
Cat390.ts34.5.log	Energy: -1637853.4946196
C         -0.51767       -3.01414       -1.62933
H         -0.26510       -3.94291       -1.11090
H         -1.54832       -2.96258       -1.99599
C          0.50769       -2.34669       -2.35653
H          1.53692       -2.71699       -2.31468
H          0.25414       -1.90333       -3.32694
H          0.43046       -0.81711       -1.89464
Rh         0.09759       -1.36241       -0.39638
C         -1.93937        1.52405       -1.18685
C         -3.45003       -0.89592       -0.81529
C         -2.42227        0.39051        1.42199
C          2.29737        0.16990        1.93965
C          3.49519       -1.11482       -0.35438
C          2.30727        1.47357       -0.61586
P          1.99461       -0.16184        0.15277
P         -1.88622       -0.08091       -0.28060
C          0.13193       -2.41415        1.16274
O          0.16756       -3.07638        2.10579
C         -1.89914        2.73523       -0.48136
H         -1.94691        2.72102        0.60841
C         -1.87499        1.55230       -2.60029
C         -1.90910        0.30612       -3.43735
H         -2.93872        0.05463       -3.73794
H         -1.52034       -0.56100       -2.88737
H         -1.31509        0.43446       -4.35414
C         -1.79896        3.95734       -1.13982
H         -1.76180        4.88343       -0.56151
C         -1.78945        2.79306       -3.24232
H         -1.74588        2.81350       -4.33537
C         -1.74973        3.98876       -2.53015
H         -1.67586        4.94073       -3.06163
C         -3.63581       -2.23464       -0.44775
H         -2.83938       -2.75143        0.09512
C         -4.48097       -0.24576       -1.50003
H         -4.36886        0.80424       -1.78362
C         -4.81633       -2.90004       -0.75850
H         -4.94067       -3.94317       -0.45363
C         -5.65771       -0.92142       -1.81893
H         -6.45093       -0.39280       -2.35560
C         -5.84741       -2.25910       -1.45802
C         -7.10289       -2.99539       -1.82346
H         -7.45177       -3.63062       -0.99537
H         -7.91432       -2.30320       -2.08964
H         -6.93478       -3.65694       -2.68972
C         -3.66392        0.99900        1.66108
H         -4.33174        1.22128        0.82531
C         -1.60631        0.10355        2.51534
H         -0.63651       -0.36636        2.34666
C         -4.05750        1.32223        2.95309
H         -5.02818        1.80003        3.11497
C         -2.00578        0.42470        3.81189
H         -1.33858        0.19165        4.64643
C         -3.23572        1.03944        4.05519
C         -3.68466        1.36589        5.44910
H         -4.46284        0.66124        5.78635
H         -2.85264        1.30758        6.16484
H         -4.11805        2.37609        5.50630
C          3.13387       -0.68890        2.66493
H          3.67752       -1.47800        2.14216
C          1.59801        1.19611        2.61655
C          0.70568        2.17664        1.91540
H          0.20369        1.72447        1.05014
H          1.27958        3.03502        1.53210
H         -0.06631        2.55438        2.59954
C          3.28411       -0.55709        4.04216
H          3.93937       -1.24211        4.58500
C          1.76517        1.30715        4.00220
H          1.22029        2.09523        4.52972
C          2.59332        0.44597        4.71609
H          2.69698        0.55893        5.79799
C          3.46461       -2.51271       -0.25143
H          2.55159       -2.99542        0.10737
C          4.65685       -0.51822       -0.85513
H          4.71212        0.56550       -0.96813
C          4.56687       -3.28157       -0.60875
H          4.51696       -4.36944       -0.50625
C          5.75232       -1.29493       -1.22743
H          6.64627       -0.80223       -1.62046
C          5.73247       -2.68785       -1.10933
C          6.90241       -3.52397       -1.53711
H          6.74602       -3.92916       -2.55091
H          7.83214       -2.93778       -1.55723
H          7.05082       -4.38221       -0.86504
C          3.25620        2.36248       -0.09600
H          3.82512        2.08925        0.79714
C          1.57065        1.86337       -1.73654
H          0.80229        1.19284       -2.12741
C          3.45986        3.60554       -0.68908
H          4.19884        4.28999       -0.26294
C          1.77786        3.10591       -2.32564
H          1.17157        3.39306       -3.18839
C          2.72442        4.00032       -1.81325
C          2.93468        5.34055       -2.45423
H          3.40688        5.23548       -3.44473
H          1.97682        5.86130       -2.60766
H          3.58075        5.98608       -1.84295
