90
Cat333.ts34.5.log	Energy: -2165187.9521511
C          0.77431        0.01399       -3.81111
H          1.86628       -0.00873       -3.85662
H          0.27187       -0.73589       -4.42752
C          0.09484        1.21492       -3.52405
H          0.67767        2.13407       -3.40241
H         -0.91064        1.38811       -3.91771
H         -0.13357        1.39377       -1.84423
Rh         0.02841       -0.21830       -1.77949
C         -1.90087        1.49238        0.48116
C         -3.51036        0.02392       -1.38133
C         -2.22342       -1.41477        0.76048
C          1.67176       -0.95133        1.20459
C          3.40003       -0.77382       -1.14712
C          2.56044        1.61121        0.25929
P          1.92095       -0.00749       -0.36099
P         -1.90103       -0.07924       -0.47517
C          0.10330       -2.07369       -2.04260
O          0.22822       -3.20438       -2.22978
C         -0.93529        1.70416        1.47449
H         -0.23747        0.90750        1.73556
C         -2.72197        2.56718        0.11683
H         -3.47209        2.43896       -0.66650
C         -0.81015        2.93280        2.11235
H         -0.04745        3.08731        2.87677
C         -2.58905        3.81186        0.72747
H         -3.22301        4.64864        0.42966
C         -1.63323        3.98784        1.72591
Cl        -1.43703        5.54224        2.46655
C         -3.42028        0.04555       -2.77698
H         -2.42017       -0.02292       -3.21595
C         -4.78165        0.06269       -0.76279
C         -4.98760        0.00772        0.72306
H         -4.27265        0.63857        1.26763
H         -4.85487       -1.01742        1.10296
H         -6.00390        0.33560        0.98227
C         -4.55361        0.11547       -3.58129
H         -4.45556        0.12849       -4.66919
C         -5.90938        0.13482       -1.59142
H         -6.89778        0.16903       -1.12473
C         -5.80785        0.16160       -2.98006
H         -6.71294        0.21623       -3.59006
C         -2.08245       -1.18924        2.13590
H         -1.84929       -0.19099        2.50332
C         -2.58101       -2.70679        0.31065
C         -2.89339       -3.02573       -1.12248
H         -2.31793       -2.41721       -1.82987
H         -3.95698       -2.82725       -1.33438
H         -2.69513       -4.08448       -1.33929
C         -2.25290       -2.21004        3.06361
H         -2.12201       -2.00461        4.12786
C         -2.72795       -3.72466        1.26265
H         -2.99357       -4.72643        0.91327
C         -2.56304       -3.49329        2.62421
H         -2.67862       -4.31066        3.33979
C          1.17603       -2.26405        1.14177
H          0.98857       -2.73442        0.17656
C          1.83154       -0.37189        2.47039
H          2.19862        0.65288        2.55907
C          0.89066       -2.98725        2.29205
H          0.50060       -4.00332        2.22547
C          1.51860       -1.07489        3.63290
H          1.63494       -0.60925        4.61295
C          1.05724       -2.38375        3.53712
Cl         0.64368       -3.25861        4.97465
C          3.80421       -2.07413       -0.81901
H          3.30856       -2.60671       -0.00627
C          4.07033       -0.08469       -2.18486
C          3.74373        1.33077       -2.56689
H          4.24466        2.05037       -1.89930
H          2.66797        1.53958       -2.49008
H          4.06951        1.54207       -3.59520
C          4.84445       -2.70237       -1.49605
H          5.13802       -3.71689       -1.21660
C          5.11361       -0.73755       -2.85202
H          5.63217       -0.20569       -3.65489
C          5.50376       -2.03211       -2.52261
H          6.31960       -2.51368       -3.06660
C          1.73247        2.71758        0.04013
H          0.78383        2.55733       -0.47814
C          3.80426        1.79384        0.91149
C          4.78703        0.68636        1.16132
H          5.35497        0.44857        0.24790
H          4.30031       -0.24607        1.47427
H          5.50622        0.98030        1.93868
C          2.08541        3.99480        0.46554
H          1.40532        4.83391        0.30264
C          4.14325        3.08874        1.32582
H          5.09973        3.23965        1.83402
C          3.30229        4.17881        1.11378
H          3.60154        5.17180        1.45818
