50
Cat320.ts34.5.log	Energy: -1585689.7959395
C         -4.31050       -1.14864       -0.27275
H         -5.09071       -0.44931       -0.58436
H         -4.21519       -2.02912       -0.91586
C         -4.06332       -1.29638        1.12656
H         -4.59418       -0.65712        1.83752
H         -3.87879       -2.30299        1.51859
H         -2.44092       -1.21655        1.24743
Rh        -2.51608       -0.05200        0.10748
C          0.61674       -1.60071       -0.63470
C         -1.58421       -3.02265       -1.68149
C         -0.79024       -0.61703       -2.93656
C          0.57001        1.51481        0.70495
C         -1.61940        2.84209        1.91090
C         -0.67210        0.42422        3.06133
P         -1.07760        1.15294        1.43127
P         -1.08326       -1.29980       -1.25896
C         -3.08590        1.47895       -0.82955
O         -3.37508        2.42944       -1.41845
C          1.77623       -1.21902       -1.31716
H          1.71273       -0.74979       -2.30002
C          0.75438       -2.18694        0.63204
H         -0.14281       -2.47116        1.19048
C          3.03677       -1.39722       -0.75096
H          3.93384       -1.05954       -1.27268
C          2.00531       -2.38848        1.20355
H          2.10742       -2.84185        2.19114
C          3.14311       -1.97552        0.50965
Cl         4.70301       -2.13445        1.24989
H         -1.70612       -3.60341       -0.75580
H         -2.55545       -2.99521       -2.19746
H         -0.84253       -3.51878       -2.32547
H         -0.15454       -1.26082       -3.56436
H         -1.77303       -0.49892       -3.41526
H         -0.33954        0.38168       -2.85137
C          0.60323        2.09425       -0.57143
H         -0.33457        2.32867       -1.08333
C          1.78143        1.20234        1.32760
H          1.79667        0.73830        2.31488
C          1.80952        2.35559       -1.21103
H          1.83291        2.80291       -2.20622
C          2.99819        1.44240        0.69260
H          3.93917        1.15743        1.16598
C          3.00344        2.01263       -0.57616
Cl         4.50974        2.24837       -1.40044
H         -1.80946        3.42999        1.00188
H         -2.56603        2.76077        2.46468
H         -0.86310        3.35319        2.52593
H         -0.17394       -0.54424        2.91599
H         -0.03671        1.08287        3.67256
H         -1.62079        0.24549        3.58690
