88
Cat396.ts34.5.log	Energy: -1976967.6046569
C          1.53957        1.30490       -3.19057
H          1.82605        2.35375       -3.29680
H          2.38121        0.60643       -3.15959
C          0.30493        0.86938       -3.74290
H         -0.36970        1.59897       -4.19820
H          0.25303       -0.12328       -4.20290
H         -0.40700       -0.01040       -2.50981
Rh         0.16972        1.13110       -1.52992
C          1.71180       -2.09560       -0.99796
O          3.16124        0.04192       -0.40602
O          1.20512       -0.50697        1.18621
C         -2.52944        2.37901        0.39246
O         -3.13100        0.48456       -1.32857
O         -1.73798       -0.22987        0.70104
P         -1.77585        0.96006       -0.45667
P          1.53840       -0.35316       -0.45012
C          0.45172        2.94948       -1.00196
O          0.59915        4.04325       -0.68851
C          0.53864       -2.58521       -1.59361
H         -0.32012       -1.91607       -1.69159
C          2.83529       -2.94917       -0.86644
C          4.14923       -2.55468       -0.25732
H          4.02435       -2.09043        0.72908
H          4.67242       -1.81777       -0.88260
H          4.79173       -3.43856       -0.14607
C          0.44070       -3.89236       -2.05801
H         -0.48351       -4.23758       -2.52549
C          2.70962       -4.26014       -1.34597
H          3.56872       -4.92935       -1.25010
C          1.54043       -4.73469       -1.93304
H          1.49344       -5.76447       -2.29567
C          3.59879        1.32409       -0.23973
C          4.60273        1.78524       -1.09213
H          4.98312        1.11897       -1.86835
C          3.08748        2.15973        0.75616
H          2.29414        1.79879        1.41132
C          5.10044        3.07676       -0.95045
H          5.88553        3.45929       -1.60501
C          3.57612        3.45635        0.89397
H          3.18053        4.13220        1.65375
C          4.57719        3.89998        0.04048
F          5.04816        5.13997        0.17278
C          1.77753       -1.42708        2.01952
C          2.84660       -1.04936        2.83427
H          3.23205       -0.03035        2.77223
C          1.26909       -2.72641        2.08128
H          0.43249       -3.00280        1.43793
C          3.41602       -1.97286        3.70689
H          4.25292       -1.70411        4.35376
C          1.84026       -3.65386        2.94801
H          1.46674       -4.67733        3.01092
C          2.90868       -3.26641        3.74825
F          3.45615       -4.15407        4.57787
C         -3.65373        2.99740       -0.17142
H         -4.10696        2.56475       -1.06456
C         -1.91759        2.91971        1.54181
C         -0.72836        2.29185        2.21001
H         -0.07885        3.06499        2.64500
H         -0.12742        1.67545        1.52832
H         -1.05656        1.63197        3.02940
C         -4.19076        4.14492        0.39976
H         -5.06822        4.61780       -0.04683
C         -2.47844        4.07696        2.09514
H         -2.01553        4.50801        2.98695
C         -3.59863        4.68550        1.53962
H         -4.00829        5.58967        1.99625
C         -3.06282       -0.63448       -2.11443
C         -3.19644       -1.90089       -1.54051
H         -3.36268       -1.99068       -0.46641
C         -2.86268       -0.50255       -3.48880
H         -2.76778        0.49676       -3.91528
C         -3.11217       -3.03679       -2.33995
H         -3.21376       -4.03706       -1.91537
C         -2.77217       -1.63710       -4.29187
H         -2.60601       -1.56246       -5.36793
C         -2.88768       -2.89056       -3.70337
F         -2.76968       -3.98247       -4.46026
C         -2.60681       -0.45267        1.73111
C         -2.06110       -1.01328        2.88935
H         -0.98959       -1.21736        2.91589
C         -3.97491       -0.17890        1.65885
H         -4.40055        0.24849        0.75127
C         -2.87746       -1.29687        3.97858
H         -2.47253       -1.73497        4.89255
C         -4.79120       -0.45620        2.75423
H         -5.86196       -0.24710        2.72508
C         -4.23606       -1.01022        3.89955
F         -5.02083       -1.27651        4.94413
