88
Cat369.ts34.5.log	Energy: -2881284.5165919
C          1.89917       -3.51359        0.92417
H          2.16787       -3.74718        1.95741
H          1.20751       -4.22274        0.45857
C          2.85507       -2.85415        0.10554
H          3.80118       -2.50802        0.52954
H          2.92150       -3.13622       -0.95065
H          1.96459       -1.60684       -0.62360
Rh         1.27825       -1.44435        0.82407
C         -0.70309       -3.03904       -1.58094
O         -2.05110       -2.55550        0.59208
O         -1.37962       -0.49425       -0.81937
C          0.30266        1.93176        1.17292
O          2.84632        1.55251        0.75645
O          1.30746        1.03046       -1.23487
P          1.42764        0.74080        0.40451
P         -0.71319       -1.88854       -0.17470
C          1.33163       -1.22722        2.72156
O          1.36832       -1.08570        3.86128
C          0.02555       -2.65681       -2.71584
H          0.49944       -1.67068       -2.74719
C         -1.30103       -4.30101       -1.54386
H         -1.87695       -4.59886       -0.66552
C          0.12937       -3.51763       -3.80084
H          0.68483       -3.20060       -4.68792
C         -1.17850       -5.16136       -2.63378
H         -1.65320       -6.14574       -2.59598
C         -0.46615       -4.78782       -3.77806
C         -0.31935       -5.72107       -4.94318
H          0.69379       -6.15504       -4.97277
H         -1.03489       -6.55317       -4.88765
H         -0.47403       -5.19733       -5.89851
C         -2.49708       -1.99103        1.75911
C         -3.65470       -1.21251        1.73415
H         -4.20117       -1.09662        0.79762
C         -1.79933       -2.17794        2.95222
H         -0.91368       -2.81300        2.95708
C         -4.08791       -0.57816        2.89355
H         -4.98517        0.04263        2.88404
C         -2.21985       -1.53156        4.11146
H         -1.66022       -1.64180        5.04116
C         -3.35311       -0.72116        4.07021
Cl        -3.84646        0.14368        5.49009
C         -2.64497       -0.26913       -1.27577
C         -3.21067        0.96656       -0.94594
H         -2.63885        1.65588       -0.32142
C         -3.36839       -1.18665       -2.03967
H         -2.93319       -2.15156       -2.29721
C         -4.49102        1.28974       -1.37976
H         -4.93884        2.25107       -1.12277
C         -4.65520       -0.86641       -2.46648
H         -5.23032       -1.57800       -3.06104
C         -5.21274        0.36785       -2.13842
Cl        -6.81361        0.76014       -2.67391
C          0.52455        3.31682        1.14145
H          1.41421        3.71779        0.65402
C         -0.82307        1.43946        1.84034
H         -0.99335        0.36250        1.89339
C         -0.38186        4.18053        1.74246
H         -0.19744        5.25774        1.70745
C         -1.71869        2.31314        2.45097
H         -2.57881        1.90566        2.98733
C         -1.51985        3.69642        2.40485
C         -2.49866        4.63844        3.03969
H         -3.13471        4.12279        3.77270
H         -1.98622        5.46838        3.54833
H         -3.16066        5.08485        2.27897
C          4.06479        0.95498        0.60178
C          4.94849        0.98376        1.68019
H          4.63054        1.46257        2.60778
C          4.43686        0.33725       -0.59470
H          3.73820        0.31311       -1.43242
C          6.20598        0.40051        1.56704
H          6.90419        0.41557        2.40531
C          5.69287       -0.25284       -0.70832
H          5.99398       -0.74076       -1.63666
C          6.57218       -0.21963        0.37224
Cl         8.13468       -0.95617        0.23077
C          1.12642        2.26994       -1.78729
C          2.20470        3.13849       -1.96081
H          3.20147        2.83706       -1.63542
C         -0.15168        2.63909       -2.20366
H         -0.97373        1.93650       -2.06598
C          1.99745        4.39023       -2.53427
H          2.82927        5.08263       -2.67272
C         -0.36143        3.88753       -2.77909
H         -1.35805        4.18871       -3.10547
C          0.71447        4.76114       -2.93542
Cl         0.45589        6.32230       -3.64183
