90
Cat325.ts34.5.log	Energy: -2070228.3412379
C          2.20790       -1.74817       -2.70162
H          2.07091       -1.71835       -3.78534
H          3.15016       -1.31704       -2.34938
C          1.63783       -2.82941       -1.97425
H          1.01453       -3.56601       -2.48802
H          2.20354       -3.24768       -1.13467
H          0.85292       -2.08886       -0.69237
Rh         0.42418       -0.95862       -1.76719
C          3.14638        0.02679        0.26852
O          2.29006        1.90413       -1.28334
O          0.76175        1.22776        0.69338
C         -2.46908        0.48642       -0.34483
O         -2.81928       -1.80177       -1.54855
O         -1.71688       -1.85671        0.66580
P         -1.59308       -1.05264       -0.76963
P          1.61234        0.57873       -0.56354
C         -0.29622       -0.36191       -3.42086
O         -0.73514       -0.00360       -4.42301
C          3.05577       -1.04695        1.16354
H          2.08305       -1.50503        1.35891
C          4.40002        0.59055        0.01230
H          4.47362        1.42555       -0.68638
C          4.18573       -1.54047        1.80597
H          4.11652       -2.37252        2.50847
C          5.54167        0.09943        0.64124
H          6.52243        0.53509        0.44297
C          5.42701       -0.96203        1.53706
Cl         6.84158       -1.57619        2.32307
C          1.62112        2.60632       -2.31726
H          2.39435        2.90419       -3.04430
H          0.92449        1.92410       -2.83487
C          0.89387        3.82435       -1.78291
H          0.30949        4.26729       -2.60899
H          0.16161        3.49159       -1.02819
C          1.81047        4.87582       -1.17404
H          2.49553        5.25362       -1.95353
H          2.45403        4.39271       -0.42000
C          1.05315        6.03305       -0.54417
H          0.41659        6.54610       -1.28315
H          0.39547        5.68288        0.26785
H          1.73614        6.78274       -0.11721
C          1.32635        2.11557        1.64848
H          1.85694        1.52445        2.41686
H          2.06785        2.77023        1.16156
C          0.21765        2.93455        2.27248
H          0.67602        3.61496        3.01178
H         -0.23489        3.57589        1.49634
C         -0.87018        2.09768        2.93038
H         -0.40630        1.40647        3.65751
H         -1.33665        1.46352        2.16019
C         -1.93503        2.93352        3.62005
H         -1.50623        3.54853        4.42801
H         -2.43106        3.61549        2.91196
H         -2.71724        2.29905        4.06421
C         -2.06202        1.69906       -0.89939
H         -1.22981        1.70479       -1.60610
C         -3.52629        0.47027        0.57263
H         -3.84208       -0.47800        1.01259
C         -2.68579        2.89062       -0.54221
H         -2.36443        3.84419       -0.96412
C         -4.15875        1.65250        0.94100
H         -4.97589        1.65396        1.66403
C         -3.72543        2.85674        0.38445
Cl        -4.47523        4.33952        0.87478
C         -2.57981       -2.96305       -2.33600
H         -3.49771       -3.10261       -2.92732
H         -1.74650       -2.76261       -3.03230
C         -2.27982       -4.19151       -1.50019
H         -2.10886       -5.03478       -2.19332
H         -1.32481       -4.03274       -0.96900
C         -3.36931       -4.54438       -0.49912
H         -4.30958       -4.74978       -1.04097
H         -3.56193       -3.65929        0.12720
C         -3.00699       -5.72934        0.38007
H         -2.82145       -6.63658       -0.21781
H         -2.09301       -5.52418        0.96034
H         -3.80810       -5.96255        1.09806
C         -0.75509       -1.69086        1.69477
H          0.02087       -2.47118        1.57768
H         -0.26092       -0.70988        1.60892
C         -1.43465       -1.82296        3.03994
H         -0.67145       -1.66111        3.82172
H         -2.16248       -0.99964        3.14728
C         -2.12774       -3.16052        3.25356
H         -1.38358       -3.97155        3.15832
H         -2.84851       -3.31942        2.43542
C         -2.83305       -3.26258        4.59542
H         -2.12786       -3.13579        5.43289
H         -3.60662       -2.48450        4.69880
H         -3.32599       -4.23846        4.72070
