96
Cat354.ts34.5.log	Energy: -1542883.2338228
C         -0.89575        0.79730       -3.77304
H         -0.71636        0.06067       -4.56056
H         -1.94840        1.05438       -3.62251
C          0.08361        1.81546       -3.56681
H          1.02129        1.77989       -4.12822
H         -0.26108        2.83872       -3.37601
H          0.23484        1.84161       -1.96833
Rh         0.18310        0.22210       -2.00713
C         -1.80351        1.72553        0.54566
O         -3.11449        0.11829       -1.01863
O         -1.41610       -0.93156        0.64834
C          1.94135       -0.55441        0.97089
O          3.29574       -0.45252       -1.37318
O          2.58417        1.69642       -0.14271
P          1.98983        0.25048       -0.66176
P         -1.54701        0.24745       -0.49553
C          0.53786       -1.54307       -2.61885
O          0.74140       -2.62843       -2.94244
C         -0.81973        2.04078        1.49410
H          0.04924        1.38811        1.61468
C         -2.90155        2.57566        0.40462
H         -3.67525        2.32946       -0.32504
C         -0.95014        3.16731        2.29499
H         -0.18068        3.38842        3.04034
C         -3.01611        3.71418        1.20289
H         -3.88382        4.36918        1.08289
C         -2.05149        4.02723        2.16458
C         -2.17718        5.24315        3.03476
H         -1.33829        5.93833        2.86944
H         -3.11064        5.78765        2.83577
H         -2.16352        4.97170        4.10222
C         -3.44348       -0.75554       -2.08780
H         -4.08583       -0.18379       -2.77975
H         -2.52579       -1.03556       -2.63300
C         -4.17087       -1.99274       -1.60360
H         -4.37853       -2.62665       -2.48394
H         -3.49006       -2.57723       -0.96088
C         -5.46648       -1.69291       -0.86360
H         -6.13252       -1.11335       -1.52740
H         -5.24228       -1.02556       -0.01461
C         -6.18609       -2.93976       -0.37660
H         -6.44172       -3.60869       -1.21420
H         -5.55893       -3.51692        0.32195
H         -7.12095       -2.69096        0.14814
C         -2.13418       -0.96480        1.87346
H         -1.39137       -0.87788        2.68614
H         -2.81100       -0.09813        1.94967
C         -2.91922       -2.25232        2.00859
H         -3.45364       -2.22161        2.97490
H         -3.69825       -2.27352        1.23016
C         -2.07213       -3.51281        1.92416
H         -1.33699       -3.50628        2.74786
H         -1.48158       -3.47751        0.99383
C         -2.89370       -4.79021        1.97250
H         -3.48772       -4.85366        2.89882
H         -3.59912       -4.84180        1.12731
H         -2.25647       -5.68630        1.92380
C          1.44596       -1.86273        1.03086
H          1.04818       -2.33499        0.12975
C          2.41589        0.04623        2.13941
H          2.80136        1.06659        2.09681
C          1.46135       -2.56369        2.22875
H          1.08768       -3.59055        2.25408
C          2.40447       -0.65665        3.34373
H          2.77617       -0.17445        4.25222
C          1.93686       -1.97279        3.40866
C          1.92387       -2.73737        4.69935
H          2.38171       -2.16231        5.51609
H          0.89344       -2.98836        4.99933
H          2.47082       -3.68841        4.60371
C          4.57405       -0.54930       -0.75341
H          5.30295       -0.43489       -1.57231
H          4.72225        0.29473       -0.05811
C          4.78801       -1.87429       -0.04335
H          5.84575       -1.91188        0.27353
H          4.19292       -1.89910        0.88321
C          4.45183       -3.09107       -0.89278
H          5.10098       -3.10881       -1.78630
H          3.42444       -2.98260       -1.27608
C          4.58141       -4.39649       -0.12605
H          5.60654       -4.54564        0.25089
H          3.90641       -4.40744        0.74547
H          4.32825       -5.26342       -0.75496
C          2.73398        2.77677       -1.05293
H          3.79613        3.07585       -1.02999
H          2.50489        2.44155       -2.07828
C          1.84347        3.93726       -0.66656
H          1.96288        4.72426       -1.43267
H          0.79103        3.60614       -0.71484
C          2.13092        4.51007        0.71296
H          3.19720        4.79194        0.77827
H          1.97955        3.71514        1.46155
C          1.25705        5.70843        1.04310
H          1.43636        6.53995        0.34245
H          0.19040        5.44336        0.97585
H          1.44748        6.08467        2.06021
