96
Cat392.ts34.5.log	Energy: -1637853.4221674
C         -0.64295       -0.33199        3.39965
H         -0.32288        0.45238        4.09064
H         -1.70439       -0.59266        3.46510
C          0.29415       -1.34140        3.04280
H          1.33080       -1.27279        3.38726
H         -0.06055       -2.37624        2.96465
H          0.22318       -1.43713        1.44648
Rh         0.04838        0.18043        1.42787
C         -2.10919       -1.36293       -1.05867
C         -3.52493       -0.09070        1.09942
C         -2.36957        1.50689       -0.84605
C          2.41223        1.59160       -0.85145
C          3.44705       -0.11009        1.22366
C          2.22133       -1.26217       -1.07133
P          1.96273        0.10242        0.13539
P         -1.94143        0.01296        0.15690
C          0.23998        1.99950        1.86564
O          0.36776        3.10926        2.15202
C         -2.07344       -1.09868       -2.43535
H         -2.03572       -0.06496       -2.78096
C         -2.16169       -2.70692       -0.62074
C         -2.20163       -3.08626        0.83151
H         -3.23774       -3.21467        1.18327
H         -1.74578       -2.31359        1.46414
H         -1.67243       -4.03566        1.00291
C         -2.08978       -2.12610       -3.37373
H         -2.05284       -1.88821       -4.43934
C         -2.20193       -3.72296       -1.58197
H         -2.25596       -4.76128       -1.24227
C         -2.16281       -3.44822       -2.94566
H         -2.18731       -4.26578       -3.67036
C         -3.65359        0.73594        2.22058
H         -2.81274        1.36751        2.51960
C         -4.60769       -0.88896        0.71572
H         -4.52187       -1.52293       -0.17173
C         -4.84730        0.75636        2.93751
H         -4.94652        1.41038        3.80741
C         -5.80738       -0.89006        1.43502
C         -6.94849       -1.77696        1.02657
H         -7.90827       -1.23926        1.05865
H         -6.80960       -2.16794        0.00863
H         -7.03977       -2.64192        1.70449
C         -5.91291       -0.05369        2.55270
H         -6.84438       -0.03548        3.12574
C         -3.60690        1.61632       -1.49850
H         -4.32315        0.79260       -1.45952
C         -1.48361        2.58127       -0.89253
H         -0.51836        2.48681       -0.39179
C         -3.92504        2.77938       -2.18914
H         -4.88663        2.86054       -2.70219
C         -1.80069        3.77310       -1.55905
C         -0.84889        4.93240       -1.52053
H         -0.86901        5.41512       -0.52969
H          0.18677        4.60532       -1.69300
H         -1.10600        5.69420       -2.27034
C         -3.03068        3.85163       -2.21538
H         -3.29910        4.76896       -2.74716
C          3.36378        2.49078       -0.35175
H          3.87416        2.26709        0.58689
C          1.74898        1.88247       -2.06517
C          0.72156        0.97166       -2.66680
H          0.19041        0.39655       -1.89706
H          1.18414        0.23784       -3.34568
H         -0.02055        1.54811       -3.23631
C          3.67416        3.66385       -1.03320
H          4.41710        4.35069       -0.62146
C          2.08892        3.06159       -2.73925
H          1.58181        3.28686       -3.68176
C          3.03776        3.94832       -2.23829
H          3.27489        4.86275       -2.78744
C          3.41974        0.45260        2.50495
H          2.51791        0.97288        2.83724
C          4.59214       -0.80423        0.81683
H          4.62522       -1.26204       -0.17370
C          4.52728        0.34137        3.34292
H          4.50135        0.79374        4.33741
C          5.70458       -0.93973        1.65353
C          6.90850       -1.71934        1.20914
H          6.93463       -2.71187        1.68876
H          6.90513       -1.87839        0.12165
H          7.84340       -1.20485        1.47815
C          5.65985       -0.35001        2.92231
H          6.52177       -0.44032        3.58969
C          3.13246       -1.13957       -2.12725
H          3.66442       -0.19771       -2.28389
C          1.54253       -2.47009       -0.89478
H          0.81025       -2.55007       -0.08693
C          3.35388       -2.21720       -2.98156
H          4.06076       -2.11738       -3.80912
C          1.77158       -3.56817       -1.72968
C          1.06350       -4.87279       -1.51126
H          0.45977       -4.85118       -0.59424
H          0.38628       -5.09985       -2.34902
H          1.78135       -5.70413       -1.43098
C          2.68442       -3.42145       -2.78070
H          2.87159       -4.26467       -3.45186
