100
Cat395.ts34.5.log	Energy: -1826600.1729976
C          0.40430        3.35076        0.35529
H         -0.39676        3.84993        0.90544
H          1.42305        3.51963        0.71317
C          0.19504        3.00578       -0.99287
H         -0.73304        3.31653       -1.48237
H          1.06271        2.94391       -1.65702
H         -0.25835        1.49635       -1.20972
Rh         0.06185        1.16940        0.36511
C          1.65257       -1.15280       -1.90468
O          3.23443        0.61932       -0.72933
O          2.21721       -1.22650        0.78444
C         -2.59165       -0.32719        2.14067
O         -3.33671        1.40338        0.31024
O         -2.41377       -0.85081       -0.53065
P         -2.02675        0.36974        0.55298
P          1.76722       -0.12390       -0.39394
C          0.47380        1.03634        2.19384
O          0.72804        0.94567        3.30864
C          0.32723       -1.51697       -2.18635
H         -0.47457       -1.13721       -1.54800
C          2.70172       -1.62025       -2.73457
C          4.15381       -1.28580       -2.55696
H          4.50420       -1.49794       -1.53872
H          4.33937       -0.21705       -2.73262
H          4.76228       -1.86926       -3.26122
C          0.01140       -2.34867       -3.25651
H         -1.03048       -2.61267       -3.45242
C          2.35155       -2.45226       -3.80655
H          3.15055       -2.82329       -4.45402
C          1.03533       -2.82035       -4.07105
H          0.81405       -3.47219       -4.92002
C          3.64882        1.71579       -0.02977
C          4.06744        2.83569       -0.74875
H          4.04616        2.79879       -1.83984
C          3.65829        1.74486        1.36568
H          3.32748        0.87135        1.92907
C          4.48755        3.97654       -0.07230
H          4.80737        4.84996       -0.64753
C          4.07145        2.89893        2.02738
H          4.05727        2.91386        3.12060
C          4.49320        4.03454        1.32748
C          4.96364        5.26377        2.04982
H          4.70797        6.17932        1.49629
H          6.05926        5.25538        2.17751
H          4.51829        5.33629        3.05245
C          3.14917       -2.21476        0.60832
C          4.46739       -2.00427        1.01143
H          4.74748       -1.04309        1.44571
C          2.77644       -3.43528        0.04628
H          1.74169       -3.58509       -0.26614
C          5.40953       -3.01461        0.83829
H          6.44237       -2.83929        1.15182
C          3.73200       -4.43205       -0.12601
H          3.43395       -5.38169       -0.57896
C          5.06377       -4.24318        0.26317
C          6.07977       -5.33643        0.09964
H          6.08072       -6.01099        0.97240
H          7.09677       -4.93029        0.00008
H          5.86976       -5.95243       -0.78704
C         -3.52142        0.37794        2.91502
H         -3.96082        1.29139        2.51220
C         -2.00172       -1.50950        2.64045
C         -1.00523       -2.31445        1.85903
H         -0.24791       -1.67854        1.37757
H         -1.50593       -2.88858        1.06361
H         -0.48570       -3.02826        2.51246
C         -3.89041       -0.07807        4.17612
H         -4.62015        0.48067        4.76660
C         -2.39031       -1.94465        3.91247
H         -1.94120       -2.85836        4.31081
C         -3.32132       -1.24652        4.67558
H         -3.59817       -1.61516        5.66631
C         -3.26864        2.36400       -0.65834
C         -3.15075        2.02023       -2.00578
H         -3.10386        0.96674       -2.28697
C         -3.31867        3.70613       -0.28364
H         -3.39745        3.95556        0.77623
C         -3.07796        3.02540       -2.96722
H         -2.97616        2.74705       -4.01979
C         -3.25109        4.69840       -1.25720
H         -3.28326        5.74815       -0.95249
C         -3.12638        4.37989       -2.61586
C         -3.07531        5.45638       -3.66103
H         -4.09044        5.76124       -3.96624
H         -2.55090        5.11551       -4.56529
H         -2.56381        6.35601       -3.28846
C         -3.48208       -1.70487       -0.50070
C         -3.26620       -2.99752       -0.98358
H         -2.26990       -3.26709       -1.34037
C         -4.75054       -1.33587       -0.05109
H         -4.92657       -0.32140        0.30467
C         -4.31140       -3.91485       -1.00619
H         -4.12747       -4.92255       -1.38946
C         -5.78220       -2.27145       -0.07562
H         -6.77196       -1.97133        0.27984
C         -5.58886       -3.57447       -0.54553
C         -6.70353       -4.58023       -0.53203
H         -6.71147       -5.15184        0.41145
H         -6.60238       -5.30667       -1.35174
H         -7.68579       -4.09474       -0.62663
