42
Cat30.ts34.5.log	Energy: -817891.0400290
C         -1.74767       -2.31493       -0.70098
H         -1.54304       -3.25222       -0.17677
H         -2.78657       -1.97888       -0.62521
C         -1.03269       -2.05568       -1.91241
H         -0.25122       -2.75030       -2.23373
H         -1.58037       -1.61991       -2.75595
H         -0.54292       -0.51897       -1.74995
Rh        -0.25061       -0.88194       -0.18557
C         -1.53970        2.51750       -0.17078
C         -3.47841        0.54485        0.49287
C         -1.47541        1.24168        2.35581
C          2.29745        1.21220        1.01037
C          3.21462       -0.91738       -0.69761
C          1.92623        1.34400       -1.84342
P          1.76737        0.18150       -0.43163
P         -1.66026        0.82308        0.57395
C          0.38021       -1.84711        1.30373
O          0.78712       -2.38800        2.24031
H         -0.50993        2.86257        0.02609
C         -1.82960        2.54272       -1.66230
H         -2.88105        2.29380       -1.87364
H         -1.20540        1.80757       -2.19422
H         -2.21137        3.20314        0.37578
H         -1.63530        3.53694       -2.09351
H         -3.78148        0.35482       -0.54713
H         -3.72504       -0.35096        1.08137
H         -4.04760        1.40334        0.88466
H         -2.16455        2.03922        2.67837
H         -1.66080        0.33469        2.94933
H         -0.43929        1.55550        2.54773
H          2.21387        0.54530        1.88468
C          3.66186        1.87965        0.95910
H          3.75630        2.56202        0.10047
H          4.47597        1.14253        0.89186
H          1.49713        1.96100        1.13456
H          3.83837        2.47544        1.86814
H          3.31701       -1.58026        0.17414
H          3.00791       -1.54860       -1.57353
H          4.15466       -0.36693       -0.85853
H          1.69681        0.79699       -2.76908
H          1.18667        2.15017       -1.73633
H          2.93380        1.77946       -1.92269
