98
Cat344.ts34.5.log	Energy: -1980086.8942625
C         -0.68017       -3.72823       -1.25727
H         -0.80838       -4.57718       -0.58033
H         -1.53541       -3.55216       -1.91810
C          0.63200       -3.46099       -1.75900
H          1.48105       -4.04237       -1.38796
H          0.74235       -3.18986       -2.81539
H          0.76040       -1.84059       -1.59675
Rh         0.02713       -2.03744       -0.16163
C         -0.96524        0.92273       -1.77560
C         -3.05697       -1.04305       -1.73393
C         -2.40525        0.40333        0.67430
C          0.98670        0.69166        1.78413
C          3.02726       -1.30600        1.59510
C          2.46132        0.38533       -0.69001
P          1.62840       -0.58578        0.63079
P         -1.60648       -0.45739       -0.74591
C         -0.35609       -2.79075        1.52363
O         -0.59461       -3.22211        2.56898
C         -0.83721        2.23901       -1.31485
H         -1.26131        2.53105       -0.35390
C         -0.40073        0.60678       -3.02222
H         -0.46173       -0.41882       -3.39711
C         -0.13371        3.19691       -2.04517
H         -0.01998        4.21437       -1.66651
C          0.28786        1.55289       -3.77076
H          0.73505        1.29256       -4.73154
C          0.43822        2.84541       -3.26383
Cl         1.36695        4.01236       -4.14622
H         -2.64671       -1.50422       -2.64871
H         -3.66148       -0.17967       -2.05294
C         -3.87910       -2.06399       -0.95700
H         -3.18962       -2.75914       -0.44786
H         -4.43964       -1.55357       -0.15309
C         -4.86442       -2.87054       -1.80527
H         -4.27705       -3.38142       -2.59236
C         -5.53770       -3.94246       -0.95668
H         -4.79612       -4.60609       -0.48560
H         -6.21616       -4.56617       -1.55916
H         -6.13476       -3.48508       -0.14998
C         -5.89819       -1.98488       -2.49182
H         -6.60280       -2.58468       -3.08859
H         -5.43256       -1.25248       -3.16833
H         -6.48755       -1.42427       -1.74628
H         -1.59093        0.94610        1.18004
H         -2.67332       -0.40526        1.37184
C         -3.58761        1.32682        0.40506
H         -3.42708        1.89315       -0.52785
H         -4.49933        0.72760        0.23297
C         -3.85110        2.32331        1.53869
H         -2.93104        2.92649        1.66499
C         -4.98475        3.27139        1.16893
H         -4.77644        3.80145        0.22615
H         -5.14679        4.02751        1.95263
H         -5.93078        2.71970        1.03826
C         -4.12362        1.62935        2.86802
H         -4.29589        2.36491        3.66809
H         -3.27868        0.99862        3.18177
H         -5.01819        0.98720        2.79936
C          0.39690        0.26830        2.98548
H          0.41380       -0.78850        3.26226
C          0.91497        2.05079        1.45706
H          1.35676        2.42156        0.53202
C         -0.26451        1.16126        3.82044
H         -0.73488        0.81990        4.74388
C          0.24571        2.95669        2.27872
H          0.17785        4.01168        2.00740
C         -0.35360        2.50380        3.45046
Cl        -1.23804        3.61251        4.44437
H          2.58348       -1.73886        2.50718
H          3.69814       -0.49212        1.91251
C          3.75436       -2.38509        0.80724
H          2.99864       -3.09521        0.42941
H          4.22889       -1.94093       -0.08776
C          4.81899       -3.15032        1.59577
H          4.32232       -3.58005        2.48620
C          5.36277       -4.30404        0.76110
H          4.55693       -4.98207        0.43965
H          6.09893       -4.89760        1.32499
H          5.86414       -3.92815       -0.14667
C          5.94823       -2.24575        2.07687
H          6.70967       -2.81918        2.62792
H          5.58722       -1.45049        2.74624
H          6.45116       -1.76162        1.22223
H          1.66144        0.98785       -1.15082
H          2.72431       -0.35940       -1.45638
C          3.66080        1.24795       -0.31700
H          3.51092        1.71102        0.67287
H          4.55856        0.61258       -0.21296
C          3.94531        2.35831       -1.33372
H          3.03859        2.99173       -1.38829
C          5.10084        3.23325       -0.86491
H          4.90625        3.65897        0.13209
H          5.27821        4.06857       -1.55970
H          6.03447        2.64962       -0.80096
C          4.19902        1.81152       -2.73362
H          4.38736        2.62838       -3.44629
H          3.33766        1.24209       -3.11331
H          5.07803        1.14467       -2.74155
