74
Cat343.ts34.5.log	Energy: -1782885.1220931
C          3.72848       -0.23816       -1.53391
H          4.63050       -0.33208       -0.92331
H          3.58634       -1.05582       -2.24817
C          3.30710        1.07463       -1.91338
H          3.83261        1.94702       -1.51431
H          2.95497        1.23363       -2.93933
H          1.69932        1.03338       -1.64148
Rh         2.06024        0.22157       -0.28309
C         -0.90026       -0.89745       -1.78872
C          1.23105       -2.79370       -2.06643
C         -0.10017       -2.50633        0.48246
C         -0.62178        0.79015        1.86996
C          1.23300        2.95969        1.80861
C         -0.54361        2.53048       -0.45448
P          0.54507        1.63034        0.72759
P          0.59073       -1.50357       -0.90381
C          2.95538       -0.21461        1.31812
O          3.47172       -0.48754        2.31539
C         -2.18804       -0.91690       -1.24001
H         -2.37920       -1.43609       -0.30077
C         -0.71419       -0.21185       -3.00037
H          0.28528       -0.15586       -3.44072
C         -3.24645       -0.24452       -1.85099
H         -4.24226       -0.24810       -1.40383
C         -1.76045        0.44893       -3.63101
H         -1.60129        0.99096       -4.56460
C         -3.02447        0.44713       -3.03752
Cl        -4.31961        1.33497       -3.77073
H          0.40709       -3.44448       -2.40326
H          1.59292       -2.25382       -2.95810
C          2.36628       -3.60689       -1.45511
H          1.97032       -4.23126       -0.63641
H          3.08595       -2.91794       -0.98206
C          3.07467       -4.49031       -2.46990
H          2.37668       -5.19863       -2.94439
H          3.52913       -3.88739       -3.27265
H          3.87832       -5.07739       -2.00007
H          0.77225       -2.75776        1.10836
H         -0.68362       -1.80170        1.09668
C         -0.91345       -3.75603        0.16797
H         -0.26915       -4.50364       -0.32340
H         -1.70461       -3.52361       -0.56388
C         -1.53211       -4.36144        1.42015
H         -0.75602       -4.63780        2.15171
H         -2.20751       -3.64948        1.92148
H         -2.11115       -5.26839        1.18862
C         -0.09292        0.12108        2.98501
H          0.97526        0.18297        3.20600
C         -1.98928        0.65411        1.60648
H         -2.43884        1.15086        0.74663
C         -0.89280       -0.67262        3.79836
H         -0.46954       -1.20306        4.65267
C         -2.80271       -0.14707        2.40657
H         -3.86509       -0.26214        2.18432
C         -2.24646       -0.81721        3.49215
Cl        -3.23890       -1.85899        4.45627
H          0.40655        3.54788        2.24183
H          1.73195        2.44240        2.64509
C          2.23280        3.84519        1.07856
H          1.72821        4.36698        0.24639
H          2.99116        3.19392        0.61157
C          2.89768        4.86334        1.99120
H          2.15709        5.53555        2.45356
H          3.44615        4.36542        2.80662
H          3.61635        5.48815        1.43942
H          0.13942        2.90874       -1.23235
H         -1.13593        1.75063       -0.96220
C         -1.43303        3.65267        0.06484
H         -0.80424        4.48732        0.41704
H         -2.00041        3.31723        0.94870
C         -2.39409        4.15298       -1.00438
H         -1.84762        4.53313       -1.88221
H         -3.05501        3.34666       -1.36158
H         -3.03002        4.96837       -0.62783
