84
Cat384.ts34.5.log	Energy: -1444291.4714340
C          1.53564       -1.93831       -2.33062
H          1.25460       -1.86133       -3.38421
H          2.58084       -1.69820       -2.11362
C          0.88190       -2.91781       -1.53124
H          0.06847       -3.51351       -1.95412
H          1.47698       -3.45494       -0.78428
H          0.44335       -2.08145       -0.16316
Rh         0.08057       -0.85953       -1.15993
C          3.31089       -0.34262        0.04270
O          1.90691        1.93972       -0.33686
O          1.32188        0.42396        1.67068
C         -2.34642        1.11562        0.41592
O         -3.15033       -1.02910       -1.01745
O         -2.18512       -1.37702        1.34346
P         -1.87948       -0.59423       -0.06663
P          1.61224        0.36033        0.04063
C         -0.61467       -0.02107       -2.70914
O         -1.02441        0.48833       -3.65771
C          3.46949       -1.44602        0.89759
H          2.64690       -1.71931        1.56298
C          4.34629       -0.02033       -0.86073
C          4.23725        1.07804       -1.87651
H          4.06947        2.05243       -1.40090
H          3.38056        0.90689       -2.54601
H          5.14647        1.12692       -2.49112
C          4.63889       -2.19732        0.91510
H          4.73567       -3.04408        1.59858
C          5.51865       -0.78855       -0.82315
H          6.32733       -0.53553       -1.51435
C          5.67739       -1.85859        0.05137
H          6.60628       -2.43386        0.04777
C          0.88737        2.71081       -0.99519
H         -0.04297        2.11784       -0.99090
C          1.29295        2.95968       -2.43247
H          1.42800        2.00895       -2.96622
H          2.23252        3.53130       -2.48486
H          0.50906        3.52962       -2.95313
C          0.65877        3.98874       -0.21697
H          0.28292        3.77245        0.79145
H          1.59157        4.56898       -0.13626
H         -0.09323        4.60780       -0.72750
C          2.21644        0.98729        2.64003
H          3.24790        0.90394        2.25357
C          2.09418        0.15546        3.90142
H          2.35112       -0.89586        3.70994
H          1.06498        0.19322        4.28964
H          2.77105        0.53824        4.67971
C          1.89656        2.45042        2.87442
H          2.06147        3.02992        1.95902
H          0.84711        2.57151        3.18361
H          2.54134        2.85779        3.66792
C         -2.73847        1.91134       -0.67261
H         -2.82068        1.45403       -1.66162
C         -2.21251        1.70350        1.69259
C         -1.76279        0.95749        2.91456
H         -0.80038        0.46205        2.73106
H         -2.48235        0.17748        3.19606
H         -1.64518        1.65111        3.75916
C         -3.02486        3.26360       -0.52390
H         -3.33149        3.85611       -1.38886
C         -2.51039        3.06873        1.81736
H         -2.41688        3.53099        2.80395
C         -2.91345        3.84540        0.73622
H         -3.13210        4.90652        0.87844
C         -4.49035       -1.18796       -0.53057
H         -4.48233       -1.07917        0.56785
C         -4.92997       -2.59375       -0.89094
H         -4.23677       -3.33702       -0.47296
H         -4.93868       -2.71829       -1.98449
H         -5.94027       -2.80023       -0.50653
C         -5.39173       -0.13185       -1.13979
H         -5.10924        0.87650       -0.81023
H         -5.33166       -0.17122       -2.23840
H         -6.43688       -0.30951       -0.84393
C         -1.62194       -2.65770        1.64685
H         -1.27381       -3.11787        0.70433
C         -2.71888       -3.50972        2.25088
H         -3.55978       -3.62765        1.55381
H         -3.09918       -3.04440        3.17322
H         -2.33357       -4.50920        2.50195
C         -0.43769       -2.47867        2.57574
H          0.28918       -1.78072        2.13794
H         -0.76474       -2.06953        3.54395
H          0.05717       -3.44488        2.75823
