100
Cat374.ts34.5.log	Energy: -1826515.0394406
C          0.99456       -0.64146       -3.46119
H          0.81771        0.09468       -4.25011
H          2.03922       -0.94362       -3.33855
C         -0.02621       -1.59620       -3.18721
H         -0.98653       -1.53745       -3.70865
H          0.27612       -2.62715       -2.96885
H         -0.17915       -1.57859       -1.55962
Rh         0.03155        0.02018       -1.66774
C          1.42757       -1.29531        1.31098
C          3.27834       -1.04139       -0.87210
C          2.54506        1.27735        0.62895
C         -1.73702        1.64256        0.79682
C         -3.42605        0.49327       -1.23782
C         -2.33486       -1.20263        0.74928
P         -1.84969        0.20824       -0.33493
P          1.80585       -0.22490       -0.13587
C         -0.05119        1.80079       -2.28063
O         -0.08268        2.88599       -2.67266
C          1.64336       -0.91651        2.63905
H          2.12339        0.03770        2.86243
C          0.78764       -2.52147        1.07483
H          0.56065       -2.81489        0.04643
C          1.23435       -1.73664        3.69036
H          1.40068       -1.40782        4.72037
C          0.41413       -3.35051        2.12365
H         -0.08395       -4.29883        1.90588
C          0.62183       -2.96970        3.45564
C          0.16858       -3.85119        4.58094
H          0.60606       -4.85907        4.50280
H          0.44715       -3.43533        5.55951
H         -0.92677       -3.97267        4.56287
C          3.68664       -2.34095       -0.57665
H          3.17364       -2.89167        0.21439
C          3.96857       -0.33196       -1.87806
O          3.53752        0.92287       -2.10322
C          4.01166        1.64304       -3.20233
H          5.08509        1.88406       -3.10423
H          3.43679        2.57730       -3.23074
H          3.85161        1.09345       -4.14663
C          4.74480       -2.94113       -1.26134
H          5.04677       -3.96069       -1.01148
C          5.02792       -0.92785       -2.56805
H          5.55799       -0.37770       -3.34634
C          5.41145       -2.23272       -2.25590
H          6.24084       -2.69175       -2.79951
C          1.90886        2.50313        0.44806
H          0.97654        2.51926       -0.11771
C          3.76208        1.25020        1.34593
O          4.34002        0.04637        1.50564
C          5.59046       -0.05630        2.11912
H          6.35452        0.54167        1.59237
H          5.87194       -1.11579        2.06946
H          5.55800        0.25815        3.17767
C          2.43637        3.68663        0.96425
H          1.90987        4.63034        0.80868
C          4.30129        2.43420        1.86069
H          5.24089        2.41860        2.41370
C          3.63427        3.64480        1.66793
H          4.06761        4.56191        2.07553
C         -2.38015        2.84907        0.50963
H         -3.06947        2.91138       -0.33571
C         -0.83716        1.60858        1.87074
H         -0.27928        0.69517        2.08622
C         -2.13411        3.98394        1.28096
H         -2.63899        4.92085        1.02865
C         -0.61476        2.73685        2.64942
H          0.10041        2.68168        3.47501
C         -1.25298        3.95060        2.36578
C         -0.96812        5.17351        3.18732
H         -1.20897        5.00894        4.24974
H          0.10035        5.43957        3.13774
H         -1.54855        6.03945        2.83912
C         -3.40794        0.50738       -2.63084
H         -2.43401        0.38871       -3.11669
C         -4.66114        0.64458       -0.57097
O         -4.62262        0.64073        0.77193
C         -5.80734        0.74132        1.50618
H         -6.31879        1.70394        1.32989
H         -5.52222        0.67747        2.56381
H         -6.50387       -0.08305        1.27362
C         -4.57843        0.66588       -3.37278
H         -4.54117        0.67744       -4.46395
C         -5.83907        0.80084       -1.30985
H         -6.79784        0.92071       -0.80464
C         -5.78958        0.80918       -2.70425
H         -6.71789        0.93384       -3.26778
C         -2.46331       -1.11697        2.13449
H         -2.29013       -0.15971        2.62602
C         -2.61828       -2.43902        0.12973
O         -2.52772       -2.46477       -1.21355
C         -2.83497       -3.63590       -1.91115
H         -2.15732       -4.46513       -1.64095
H         -2.70766       -3.40594       -2.97625
H         -3.87743       -3.95421       -1.73559
C         -2.83175       -2.22009        2.90380
H         -2.92003       -2.12068        3.98773
C         -2.99009       -3.54876        0.89492
H         -3.20897       -4.50242        0.41424
C         -3.09163       -3.43505        2.28091
H         -3.38474       -4.30798        2.86977
