54
Cat324.ts34.5.log	Energy: -1774413.5243196
C         -0.61022       -3.73224        1.02166
H          0.21842       -4.38240        1.31274
H         -1.30591       -3.48248        1.82679
C         -1.07896       -3.79671       -0.31778
H         -0.56596       -4.43214       -1.04489
H         -2.15420       -3.70988       -0.50483
H         -1.16381       -2.18772       -0.82127
Rh         0.18570       -1.97911        0.05421
C         -2.20008        0.56258        0.77016
O         -1.58590       -1.16074        2.74171
O          0.01212        0.77094        2.09242
C          2.06437        0.76011       -0.97386
O          1.70294       -1.07029       -2.80865
O         -0.23226        0.52520       -2.13557
P          0.87832       -0.50330       -1.50637
P         -0.84913       -0.47507        1.43437
C          1.95451       -2.45579        0.55907
O          3.01979       -2.75633        0.87641
C         -2.06754        1.93458        0.54435
H         -1.15336        2.43825        0.86283
C         -3.38196       -0.08025        0.38095
H         -3.49365       -1.15537        0.55129
C         -3.08858        2.65474       -0.07218
H         -2.98814        3.72563       -0.25701
C         -4.41544        0.62802       -0.22123
H         -5.34049        0.13247       -0.52034
C         -4.25631        1.99575       -0.45294
Cl        -5.52618        2.88196       -1.22754
C         -2.26910       -0.37593        3.69779
H         -1.64535        0.46299        4.04484
H         -3.20736        0.03173        3.28572
H         -2.50502       -1.02839        4.54967
C          1.33943        0.57603        2.53276
H          1.35933        0.11006        3.53155
H          1.90331       -0.05960        1.83200
H          1.81835        1.56315        2.58394
C          3.39954        0.39766       -0.76569
H          3.73877       -0.60818       -1.02274
C          1.64767        2.05543       -0.65581
H          0.61120        2.34243       -0.83704
C          4.30475        1.30754       -0.23028
H          5.34675        1.03049       -0.06378
C          2.54495        2.97484       -0.12037
H          2.22749        3.98844        0.12979
C          3.86761        2.59159        0.09623
Cl         4.98351        3.72473        0.78083
C          1.48511       -2.37349       -3.30267
H          1.17175       -3.05166       -2.48959
H          0.71191       -2.37036       -4.08894
H          2.42903       -2.73250       -3.73613
C         -1.48211        0.09816       -2.62013
H         -1.40717       -0.19506       -3.68037
H         -1.87040       -0.75237       -2.03464
H         -2.18382        0.93837       -2.52575
