84
Cat389.ts34.5.log	Energy: -2692534.6537100
C         -0.45747       -3.33746       -0.85485
H         -0.26751       -4.10832       -0.10339
H         -1.45766       -3.37208       -1.29947
C          0.63305       -2.88288       -1.64685
H          1.64658       -3.23924       -1.43800
H          0.46003       -2.69263       -2.71260
H          0.56214       -1.28058       -1.58834
Rh         0.11139       -1.43168       -0.03147
C         -1.78501        1.17353       -1.67306
C         -3.38447       -1.05874       -0.81203
C         -2.48163        0.74115        1.09471
C          2.16053        0.63012        2.01776
C          3.50089       -1.17752        0.20612
C          2.38295        1.26115       -0.77333
P          1.98124       -0.13289        0.35102
P         -1.83759       -0.14869       -0.39066
C          0.00880       -2.06737        1.73835
O         -0.03845       -2.47566        2.81456
C         -1.75801        2.52422       -1.29657
H         -1.88308        2.79128       -0.24638
C         -1.61923        0.83788       -3.03773
C         -1.63360       -0.57993       -3.53317
H         -2.63929       -0.87379       -3.87397
H         -1.34489       -1.28973       -2.74706
H         -0.94726       -0.70359       -4.38377
C         -1.57154        3.53586       -2.23393
H         -1.54523        4.57849       -1.90945
C         -1.44846        1.87263       -3.96499
H         -1.32661        1.61323       -5.02083
C         -1.42069        3.20982       -3.57840
H         -1.27428        3.99345       -4.32547
C         -3.62778       -2.25813       -0.13127
H         -2.88366       -2.62749        0.57988
C         -4.34466       -0.59410       -1.71750
H         -4.18162        0.34598       -2.25124
C         -4.79764       -2.97971       -0.34422
H         -4.98720       -3.91171        0.19060
C         -5.51565       -1.31172       -1.94956
H         -6.26290       -0.95070       -2.65827
C         -5.73524       -2.50306       -1.26026
Cl        -7.18816       -3.40083       -1.54467
C         -3.71664        1.40605        1.07539
H         -4.31509        1.42310        0.16154
C         -1.75507        0.71951        2.28587
H         -0.79239        0.20733        2.31337
C         -4.20132        2.04808        2.20837
H         -5.16116        2.56678        2.19222
C         -2.22717        1.35353        3.43289
H         -1.64664        1.33380        4.35659
C         -3.44860        2.01890        3.38487
Cl        -4.04767        2.81756        4.79911
C          2.91767       -0.02980        2.99501
H          3.47909       -0.92694        2.72821
C          1.43849        1.79570        2.36535
C          0.62509        2.57982        1.37874
H          0.18058        1.93401        0.61030
H          1.24400        3.32055        0.84844
H         -0.18768        3.11597        1.88723
C          2.96700        0.43560        4.30544
H          3.56151       -0.09917        5.04945
C          1.50441        2.24333        3.69041
H          0.94316        3.14099        3.96482
C          2.25382        1.57825        4.65632
H          2.27873        1.95323        5.68220
C          4.70494       -0.71929       -0.34086
H          4.78737        0.30241       -0.71404
C          3.43469       -2.50717        0.64550
H          2.48871       -2.88707        1.04046
C          5.81474       -1.55532       -0.43646
H          6.74806       -1.19484       -0.87200
C          4.53957       -3.34887        0.57278
H          4.48182       -4.38025        0.92434
C          5.72881       -2.86609        0.02752
Cl         7.10491       -3.90871       -0.08687
C          3.30561        2.25355       -0.41353
H          3.79731        2.21212        0.56237
C          1.74428        1.35300       -2.01120
H          0.99932        0.60286       -2.28471
C          3.58563        3.31167       -1.27178
H          4.29788        4.08921       -0.99096
C          2.01383        2.40529       -2.88122
H          1.49690        2.48133       -3.83812
C          2.93335        3.38060       -2.50415
Cl         3.25925        4.70573       -3.56914
