94
Cat37.ts34.5.log	Energy: -1307878.1072005
C          1.07237       -3.11550        0.45816
H          0.99495       -3.83099       -0.36494
H          2.07707       -3.03149        0.88335
C         -0.05030       -2.96167        1.31967
H         -0.97119       -3.51537        1.11887
H          0.13526       -2.83077        2.39204
H         -0.32191       -1.34011        1.41263
Rh         0.13193       -1.28034       -0.14813
C          1.73872        1.01849        2.15450
C          3.53631       -0.66473        0.69457
C          2.31204        1.65362       -0.60528
C         -1.65983        1.07312       -2.02953
C         -3.35642       -0.90131       -0.72332
C         -1.98209        1.28573        0.89100
P         -1.75411        0.04188       -0.48442
P          1.88488        0.19344        0.49438
C          0.25045       -1.70685       -1.97063
O          0.31166       -1.95469       -3.09874
H          0.80763        1.60447        2.11880
C          1.67129        0.03702        3.31263
H          2.61717       -0.50965        3.44788
H          0.87763       -0.70703        3.14593
H          2.55813        1.74266        2.29879
H          1.45283        0.55591        4.25872
H          3.29235       -1.46058        1.42382
C          4.68429        0.15405        1.28511
H          4.38359        0.64050        2.22587
H          4.95741        0.96594        0.58739
C          5.91145       -0.72178        1.53515
H          6.73822       -0.10909        1.93087
H          5.66838       -1.45880        2.32215
C          6.35054       -1.46105        0.27646
H          7.20502       -2.12118        0.49782
H          6.71072       -0.72618       -0.46663
C          5.19955       -2.25573       -0.33045
H          4.90996       -3.06954        0.35917
H          5.51831       -2.74218       -1.26665
C          3.98937       -1.36454       -0.58751
H          4.26804       -0.60245       -1.33617
H          3.15329       -1.93780       -1.01687
H          3.37093        1.90075       -0.40394
C          1.48091        2.90116       -0.29172
H          1.63318        3.22075        0.74965
H          0.40866        2.65370       -0.38568
C          1.81285        4.06093       -1.22684
H          1.17076        4.92585       -0.99157
H          2.85188        4.38643       -1.03731
C          1.67369        3.67133       -2.69277
H          1.95647        4.51480       -3.34344
H          0.61282        3.45245       -2.91322
C          2.51341        2.44044       -3.00911
H          3.58408        2.69372       -2.90159
H          2.37133        2.13470       -4.05832
C          2.16864        1.28006       -2.08244
H          1.12940        0.95981       -2.25568
H          2.78522        0.40304       -2.32448
H         -1.11028        0.43537       -2.73869
C         -2.90553        1.61577       -2.71466
H         -3.47968        2.30619       -2.08187
H         -3.58192        0.80836       -3.03145
H         -0.96466        1.89107       -1.78387
H         -2.61697        2.16667       -3.62395
H         -3.30919       -1.14063       -1.80442
C         -4.66669       -0.15337       -0.46172
H         -4.69955        0.79881       -1.00694
H         -4.73045        0.09913        0.60998
C         -5.87748       -1.00572       -0.83516
H         -6.80608       -0.45070       -0.62310
H         -5.86732       -1.18915       -1.92514
C         -5.87077       -2.34007       -0.10012
H         -6.73231       -2.95489       -0.40753
H         -5.99068       -2.15586        0.98323
C         -4.56476       -3.08753       -0.34002
H         -4.50115       -3.37222       -1.40611
H         -4.54711       -4.02943        0.23222
C         -3.34890       -2.23976        0.01656
H         -3.32708       -2.05844        1.10639
H         -2.41540       -2.76730       -0.22686
H         -0.93652        1.62636        0.99977
C         -2.35717        0.62406        2.21839
H         -1.71374       -0.25367        2.38798
H         -3.39391        0.24948        2.16850
C         -2.23756        1.60478        3.38009
H         -2.54656        1.11756        4.31912
H         -1.17529        1.88098        3.51018
C         -3.05912        2.86503        3.13499
H         -2.92911        3.57888        3.96455
H         -4.13208        2.59995        3.11888
C         -2.68674        3.51638        1.80863
H         -1.64169        3.87337        1.85993
H         -3.30962        4.40751        1.62749
C         -2.81963        2.54090        0.64040
H         -3.88081        2.27597        0.50774
H         -2.49744        3.03763       -0.28727
