90
Cat312.ts34.5.log	Energy: -1713036.6789989
C          0.38567       -2.99623       -2.80302
H          0.03126       -2.94735       -3.83588
H          1.45673       -3.19880       -2.70534
C         -0.50185       -3.49345       -1.80729
H         -1.53486       -3.73605       -2.07025
H         -0.10753       -4.13686       -1.01273
H         -0.35647       -2.40487       -0.58155
Rh        -0.33172       -1.27603       -1.73898
C          1.84592       -0.66977        0.99978
C          3.19381       -1.30047       -1.51446
C          1.99878        1.35307       -1.14346
C         -1.88810        1.53498       -0.18780
C         -3.69077       -0.37965       -1.23097
C         -2.22482       -0.93542        1.23846
P         -1.97135       -0.27974       -0.48232
P          1.66683       -0.46775       -0.81271
C         -0.68798       -0.31729       -3.32266
O         -0.90198        0.27707       -4.29038
C          1.22174        0.23791        1.87070
H          0.71308        1.11735        1.47343
C          2.44654       -1.80491        1.56039
H          2.89136       -2.56671        0.91821
C          1.23921        0.04886        3.24917
H          0.76972        0.76514        3.92579
C          2.47271       -2.00984        2.93848
H          2.94652       -2.89058        3.37590
C          1.87647       -1.07098        3.77050
F          1.90558       -1.25381        5.08936
H          2.98082       -1.32038       -2.59423
H          3.14137       -2.34914       -1.18428
C          4.54048       -0.70097       -1.25915
C          5.29906       -1.02366       -0.12460
H          4.92340       -1.75936        0.58730
C          5.07199        0.23493       -2.15890
H          4.51922        0.47410       -3.07183
C          6.52413       -0.40687        0.11858
H          7.09303       -0.67269        1.01278
C          6.29330        0.85858       -1.91509
H          6.67909        1.59088       -2.62816
C          7.02241        0.54573       -0.76934
H          7.97965        1.03439       -0.57437
H          1.05971        1.73259       -1.56532
H          2.73307        1.35150       -1.96434
C          2.45295        2.26148       -0.03791
C          3.67792        2.09737        0.61992
H          4.34877        1.29071        0.32587
C          1.61405        3.30366        0.37519
H          0.65478        3.44201       -0.12623
C          4.04293        2.94435        1.66288
H          5.00274        2.79387        2.16317
C          1.97513        4.15102        1.42053
H          1.29701        4.95357        1.72203
C          3.19327        3.97181        2.07294
H          3.48156        4.63057        2.89565
C         -2.12228        2.14027        1.05245
H         -2.32479        1.53521        1.93692
C         -1.65556        2.36141       -1.29753
H         -1.46021        1.91597       -2.27566
C         -2.12359        3.52711        1.18847
H         -2.30146        4.00542        2.15317
C         -1.68099        3.74802       -1.18382
H         -1.50686        4.39604       -2.04464
C         -1.91284        4.31455        0.06527
F         -1.91709        5.63948        0.18840
H         -3.89738       -1.45508       -1.33855
H         -3.56262        0.01490       -2.25039
C         -4.77196        0.34415       -0.49154
C         -5.01417        1.70391       -0.73574
H         -4.43845        2.21994       -1.50733
C         -5.53873       -0.29267        0.49407
H         -5.39255       -1.35757        0.69024
C         -5.97127        2.40540       -0.00852
H         -6.13869        3.46467       -0.21788
C         -6.49819        0.40668        1.22448
H         -7.08406       -0.11442        1.98553
C         -6.71404        1.76130        0.98040
H         -7.46512        2.31126        1.55217
H         -3.20333       -0.58547        1.60458
H         -1.44368       -0.46138        1.85018
C         -2.08931       -2.42416        1.34669
C         -0.92266       -2.97242        1.89245
H         -0.14152       -2.30446        2.25764
C         -3.07672       -3.30068        0.88109
H         -3.99833       -2.90425        0.45080
C         -0.74298       -4.35165        1.96601
H          0.17773       -4.75170        2.39792
C         -2.90048       -4.68120        0.95148
H         -3.68438       -5.34588        0.58050
C         -1.73094       -5.21343        1.49223
H         -1.59296       -6.29581        1.54691
