116
Cat364.ts34.5.log	Energy: -2113714.9877506
C          0.89666       -2.80144       -2.10341
H          1.98730       -2.81202       -2.04529
H          0.40915       -3.76993       -1.96260
C          0.24765       -1.83306       -2.91033
H          0.85786       -1.17841       -3.54131
H         -0.74581       -2.03827       -3.31775
H          0.15237       -0.41075       -2.01513
Rh        -0.00438       -1.39347       -0.74476
C         -2.21276        1.35312       -1.18101
C         -3.36919       -1.25355       -0.64703
C         -2.14490        0.39991        1.48084
C          1.62959        0.64457        1.67609
C          3.58676       -1.03333        0.40729
C          2.42636        1.06569       -1.12157
P          1.93133       -0.24914        0.10339
P         -1.91021       -0.21048       -0.24350
C         -0.51751       -2.80749        0.38684
O         -0.83534       -3.73097        1.00399
C         -1.10648        2.09077       -1.60240
H         -0.10494        1.69350       -1.43120
C         -3.48833        1.84102       -1.49222
H         -4.36507        1.25329       -1.21942
C         -1.26283        3.29935       -2.28039
H         -0.37127        3.84098       -2.61075
C         -3.64139        3.04357       -2.17271
H         -4.64855        3.39750       -2.41496
C         -2.53241        3.80466       -2.57009
C         -2.71108        5.11347       -3.28319
H         -3.48230        5.04553       -4.06592
H         -3.03017        5.90607       -2.58552
H         -1.77525        5.44592       -3.75492
C         -3.96633       -2.08831        0.31622
O         -3.46233       -1.99832        1.55406
C         -3.76361       -2.95400        2.52483
H         -3.12204       -2.71545        3.38246
H         -4.82264       -2.90877        2.83681
H         -3.52957       -3.97292        2.17238
C         -3.77581       -1.40126       -1.98603
O         -3.06885       -0.69960       -2.89501
C         -3.49172       -0.64738       -4.22444
H         -2.80970        0.04199       -4.73848
H         -4.52264       -0.26134       -4.31050
H         -3.43848       -1.63618       -4.71386
C         -4.82600       -2.25858       -2.33655
H         -5.14781       -2.34945       -3.37345
C         -5.00328       -2.96429       -0.02698
H         -5.46607       -3.59477        0.73184
C         -5.43276       -3.02692       -1.34797
H         -6.24612       -3.70475       -1.61812
C         -3.28445        0.96396        1.94462
O         -4.37247        0.98598        1.14117
C         -5.39244        1.92225        1.35118
H         -6.02105        1.90523        0.45047
H         -6.02807        1.66278        2.21544
H         -4.99796        2.94390        1.48344
C         -0.95266        0.23411        2.39637
O         -0.83163       -1.13363        2.64159
C          0.33432       -1.63501        3.23468
H          0.06477       -2.59270        3.70386
H          0.74633       -0.96768        4.01187
H          1.11811       -1.82412        2.48520
C         -1.02033        1.10270        3.68034
H         -0.51782        0.56263        4.49787
C         -3.40837        1.49473        3.30326
H         -4.39013        1.82593        3.64527
C         -2.35354        1.56454        4.12870
H         -2.47574        1.94831        5.14635
C          2.58372        0.91380        2.58861
H          3.60480        0.56556        2.42627
C          0.23107        1.14020        1.86962
H         -0.08691        1.59421        0.92247
C          2.33530        1.75872        3.74809
H          3.16776        1.93510        4.43678
C         -0.00252        2.10823        3.06375
H         -0.50718        3.04117        2.76190
C          1.16258        2.39137        3.95838
C          0.92437        3.32820        5.09637
H          0.60980        4.32080        4.72841
H          0.10654        2.97065        5.74684
H          1.82186        3.45767        5.71787
C          4.80367       -0.33399        0.26394
O          4.72617        1.00963        0.21949
C          5.79429        1.76187       -0.27674
H          5.42173        2.78843       -0.39023
H          6.65612        1.76654        0.41402
H          6.12515        1.39499       -1.26361
C          3.66353       -2.42633        0.61633
O          2.51103       -3.05618        0.89097
C          2.47034       -4.45472        0.94002
H          1.42227       -4.72547        1.11177
H          3.08734       -4.85293        1.76464
H          2.80845       -4.90171       -0.01082
C          4.88861       -3.10619        0.54998
H          4.93265       -4.18539        0.68861
C          6.03122       -1.00479        0.19289
H          6.96044       -0.45048        0.06380
C          6.05588       -2.38822        0.32198
H          7.01081       -2.91713        0.27055
C          2.99093        0.61030       -2.33081
O          3.19155       -0.72120       -2.41527
C          3.89362       -1.25692       -3.49777
H          3.98805       -2.33272       -3.30383
H          3.35613       -1.11418       -4.45186
H          4.90299       -0.81811       -3.58322
C          2.24189        2.45442       -0.98499
O          1.71817        2.89485        0.17455
C          1.51458        4.26075        0.38207
H          1.12211        4.36096        1.40185
H          0.77956        4.67932       -0.32759
H          2.45630        4.83259        0.30806
C          2.58509        3.33984       -2.01868
H          2.42672        4.41098       -1.90081
C          3.34506        1.48559       -3.36306
H          3.77731        1.10814       -4.28885
C          3.13140        2.84909       -3.19743
H          3.39561        3.54081       -4.00063
