108
Cat385.ts34.5.log	Energy: -1548328.1411660
C         -0.91126        0.35494       -3.44436
H         -0.82292       -0.48353       -4.14073
H         -1.92443        0.76754       -3.38285
C          0.19833        1.25215       -3.33091
H          1.12350        1.02514       -3.86872
H         -0.00190        2.33007       -3.29331
H          0.33145        1.47605       -1.73075
Rh         0.03596       -0.11078       -1.59309
C         -1.86254        1.65982        0.97955
C         -3.44557        0.30714       -1.04146
C         -2.03163       -1.23385        1.11428
C          1.89704       -1.60064        1.02237
C          3.44126       -0.36178       -1.06909
C          2.04939        1.39032        0.94448
P          1.83681       -0.12867       -0.11540
P         -1.82303        0.16374       -0.11706
C          0.21869       -1.90612       -2.13307
O          0.33075       -2.97639       -2.55398
C         -1.74681        1.54436        2.37458
H         -1.70931        0.55939        2.83737
C         -1.92118        2.96504        0.42886
C         -2.03714        3.21958       -1.04509
H         -3.08749        3.18811       -1.37768
H         -1.48383        2.46213       -1.61698
H         -1.64178        4.21229       -1.30225
C         -1.69613        2.65537        3.21266
H         -1.60780        2.51452        4.29261
C         -1.87779        4.06974        1.28719
H         -1.92146        5.07038        0.84793
C         -1.76887        3.93244        2.66738
H         -1.73380        4.81671        3.30781
H         -3.17815        1.01827       -1.84076
C         -4.66012        0.89907       -0.32537
H         -4.39378        1.83929        0.18188
H         -5.00883        0.21439        0.46232
C         -5.79572        1.13245       -1.31950
H         -6.67665        1.54226       -0.79875
H         -5.48411        1.90030       -2.05180
C         -6.16319       -0.14816       -2.06196
H         -6.95966        0.04819       -2.79820
H         -6.58058       -0.87411       -1.34028
C         -4.94778       -0.76771       -2.74361
H         -4.59748       -0.09588       -3.54830
H         -5.22156       -1.71737       -3.23147
C         -3.80692       -0.99586       -1.75656
H         -4.11904       -1.75272       -1.01710
H         -2.91951       -1.39924       -2.26971
H         -1.22571       -1.02270        1.84018
C         -1.68993       -2.60945        0.53583
H         -0.71185       -2.56393        0.04191
H         -2.42088       -2.88678       -0.24145
C         -1.67040       -3.67482        1.62729
H         -1.45389       -4.65830        1.17980
H         -0.83195       -3.46095        2.31170
C         -2.97012       -3.71877        2.42026
H         -2.90385       -4.46283        3.23100
H         -3.79253       -4.05078        1.76039
C         -3.31281       -2.34437        2.98149
H         -2.55043       -2.05243        3.72778
H         -4.27646       -2.37062        3.51637
C         -3.35912       -1.29550        1.87401
H         -4.15923       -1.57031        1.16705
H         -3.63418       -0.31264        2.28456
C          2.19553       -2.79437        0.33784
H          2.36503       -2.76474       -0.73935
C          1.61978       -1.68698        2.40762
C          1.19207       -0.54594        3.28892
H          0.37581        0.04010        2.84965
H          2.01306        0.15258        3.50429
H          0.83437       -0.93325        4.25272
C          2.27639       -4.02630        0.97230
H          2.51035       -4.92103        0.39134
C          1.72219       -2.94193        3.03164
H          1.51545       -2.99938        4.10385
C          2.05338       -4.10094        2.34362
H          2.11530       -5.05545        2.87104
H          3.14525       -1.16386       -1.76887
C          4.70009       -0.83488       -0.33835
H          4.48225       -1.70211        0.30163
H          5.07285       -0.04151        0.32718
C          5.79053       -1.18687       -1.34827
H          6.70022       -1.51713       -0.82063
H          5.45479       -2.04718       -1.95546
C          6.10678       -0.01260       -2.26844
H          6.86380       -0.30091       -3.01590
H          6.55624        0.80123       -1.67037
C          4.85120        0.51264       -2.95596
H          4.46669       -0.25274       -3.65410
H          5.08894        1.39903       -3.56669
C          3.75982        0.85101       -1.94492
H          4.10661        1.68444       -1.31014
H          2.84798        1.19463       -2.45539
H          1.23037        1.28662        1.67199
C          1.76310        2.70888        0.21995
H          0.79280        2.64063       -0.29159
H          2.52069        2.89386       -0.55885
C          1.74795        3.86882        1.21032
H          1.55573        4.81304        0.67491
H          0.89932        3.72979        1.90159
C          3.04230        3.96062        2.00876
H          2.98502        4.78006        2.74369
H          3.87655        4.21105        1.32808
C          3.34992        2.64054        2.70504
H          2.57820        2.44565        3.47219
H          4.31297        2.69705        3.23837
C          3.37267        1.48693        1.70620
H          4.18525        1.66904        0.98387
H          3.61683        0.53656        2.20606
