94
Cat300.ts34.5.log	Energy: -1901705.3564753
C          0.65225       -0.34160        3.60183
H          0.36851       -1.24408        4.14976
H          1.71121       -0.07433        3.66903
C         -0.30587        0.70455        3.48284
H         -1.31987        0.56708        3.87104
H          0.04766        1.73872        3.56556
H         -0.30713        1.09711        1.90256
Rh        -0.11959       -0.48964        1.60366
C          1.52260        1.40632       -0.91647
C          3.20739        0.75111        1.30397
C          2.61641       -1.21739       -0.61666
C         -1.93471       -1.39949       -1.25738
C         -3.56011       -0.55824        0.94481
C         -2.19692        1.38752       -0.57030
P         -1.91935       -0.26306        0.18129
P          1.77814        0.09692        0.35281
C         -0.27336       -2.36358        1.69166
O         -0.36732       -3.51220        1.73688
C          1.82137        1.23411       -2.27303
H          2.28538        0.30634       -2.61425
C          0.92752        2.61187       -0.51260
H          0.64795        2.74899        0.53486
C          1.52805        2.22998       -3.20541
H          1.73918        2.09744       -4.26814
C          0.66917        3.62969       -1.42192
H          0.20903        4.56945       -1.11382
C          0.96125        3.41512       -2.76338
F          0.66581        4.36981       -3.65330
C          3.72592        2.04813        1.18941
H          3.30304        2.74400        0.46197
C          3.79700       -0.11155        2.23565
H          3.41362       -1.13112        2.33832
C          4.78829        2.46591        1.98031
H          5.19637        3.47476        1.89264
C          4.87006        0.29040        3.02725
H          5.30321       -0.41677        3.73508
C          5.37068        1.59308        2.90747
O          6.39713        2.08403        3.63109
C          7.01399        1.25486        4.57447
H          7.46548        0.36214        4.10613
H          7.80909        1.84810        5.04385
H          6.30767        0.92409        5.35657
C          1.93593       -2.39991       -0.93425
H          0.91923       -2.54454       -0.56605
C          3.92869       -1.06606       -1.07874
H          4.48751       -0.15949       -0.83195
C          2.53326       -3.38691       -1.70417
H          2.00392       -4.30825       -1.95379
C          4.54549       -2.05033       -1.84761
H          5.57064       -1.89766       -2.18605
C          3.84426       -3.22076       -2.16965
O          4.34950       -4.22820       -2.90609
C          5.65857       -4.12362       -3.39064
H          6.39471       -4.03892       -2.57181
H          5.85996       -5.04342       -3.95420
H          5.77946       -3.25828       -4.06622
C         -2.88142       -2.41946       -1.40188
H         -3.69212       -2.51678       -0.67713
C         -0.89463       -1.30836       -2.19402
H         -0.13097       -0.53547       -2.08284
C         -2.80074       -3.32298       -2.46010
H         -3.52860       -4.12747       -2.57988
C         -0.81171       -2.19252       -3.26350
H         -0.00323       -2.13040       -3.99397
C         -1.76906       -3.19445       -3.38023
F         -1.68962       -4.05353       -4.39506
C         -4.75114       -0.16342        0.31111
H         -4.70815        0.35165       -0.65226
C         -3.64523       -1.19515        2.18174
H         -2.71645       -1.48527        2.68248
C         -5.98121       -0.41379        0.89427
H         -6.91313       -0.11057        0.41327
C         -4.87809       -1.45640        2.78134
H         -4.90487       -1.95761        3.74909
C         -6.05618       -1.06618        2.13628
O         -7.29366       -1.26507        2.62611
C         -7.43670       -1.91140        3.86032
H         -6.95188       -1.34825        4.67710
H         -8.51379       -1.97106        4.06123
H         -7.02010       -2.93379        3.83878
C         -2.36238        2.47067        0.31026
H         -2.32548        2.29706        1.38959
C         -2.26252        1.63807       -1.93928
H         -2.16092        0.81843       -2.65254
C         -2.56705        3.75382       -0.16321
H         -2.69197        4.59919        0.51624
C         -2.44771        2.93161       -2.43242
H         -2.46322        3.09028       -3.51063
C         -2.58790        4.00092       -1.54532
O         -2.72234        5.28795       -1.91730
C         -2.64443        5.60310       -3.28257
H         -3.46651        5.14105       -3.85695
H         -2.73218        6.69429       -3.35742
H         -1.67947        5.28682       -3.71333
