90
Cat303.ts34.5.log	Energy: -1713039.2218681
C         -0.96195        0.08205       -3.68639
H         -0.74059       -0.75958       -4.34825
H         -2.02439        0.33376       -3.61132
C          0.00041        1.12684       -3.58158
H          0.96574        1.03684       -4.08828
H         -0.35490        2.16256       -3.53529
H          0.09245        1.38315       -1.95014
Rh         0.01946       -0.22237       -1.80800
C         -1.70731        1.70841        0.55377
C         -3.49731        0.13545       -1.04920
C         -2.05610       -1.15254        0.96901
C          1.72246       -1.29733        1.05370
C          3.44472       -0.41285       -1.03888
C          2.06185        1.52170        0.55560
P          1.78470       -0.07574       -0.31717
P         -1.79742        0.10953       -0.34428
C          0.36387       -2.04117       -2.17745
O          0.59249       -3.14876       -2.40744
C         -1.28089        1.82886        1.88089
H         -1.12956        0.93339        2.48457
C         -1.89861        2.88490       -0.18912
H         -2.21323        2.81854       -1.23443
C         -1.03879        3.07645        2.45341
H         -0.68322        3.17261        3.48059
C         -1.68337        4.13738        0.37341
H         -1.83114        5.05524       -0.19866
C         -1.24113        4.21462        1.68955
F         -0.98541        5.41414        2.21987
C         -3.79882       -0.83845       -2.01036
H         -3.01170       -1.52473       -2.33638
C         -4.51384        1.00298       -0.63847
H         -4.31265        1.76357        0.11955
C         -5.07965       -0.94044       -2.54097
H         -5.29266       -1.71368       -3.28470
C         -5.79241        0.90302       -1.18371
H         -6.57303        1.59169       -0.84774
C         -6.09992       -0.06615       -2.14395
C         -7.46974       -0.15631       -2.74976
H         -8.22031        0.35361       -2.12926
H         -7.49146        0.31323       -3.74748
H         -7.78422       -1.20284       -2.87838
C         -2.87430       -0.93926        2.08467
H         -3.38667        0.01742        2.21489
C         -1.46805       -2.41023        0.80610
H         -0.83308       -2.58983       -0.06249
C         -3.04202       -1.93906        3.03980
H         -3.66652       -1.74561        3.91666
C         -1.66579       -3.41534        1.74509
H         -1.18565       -4.38656        1.59847
C         -2.43285       -3.19123        2.89344
C         -2.56882       -4.26188        3.93530
H         -3.01047       -5.17762        3.51146
H         -1.57921       -4.53581        4.33472
H         -3.20003       -3.93701        4.77411
C          2.16319       -2.60809        0.82871
H          2.64450       -2.86658       -0.11758
C          1.10138       -1.00127        2.27364
H          0.74129        0.00959        2.46490
C          1.98778       -3.59685        1.79350
H          2.31923       -4.62303        1.62502
C          0.92944       -1.97513        3.25135
H          0.43332       -1.75302        4.19740
C          1.36859       -3.26549        2.99203
F          1.17125       -4.21654        3.90856
C          3.56872       -0.55404       -2.42082
H          2.66451       -0.48785       -3.03327
C          4.59677       -0.51667       -0.24668
H          4.52693       -0.41962        0.83909
C          4.81455       -0.79044       -3.00194
H          4.88933       -0.90173       -4.08719
C          5.83394       -0.75520       -0.82968
H          6.72061       -0.83788       -0.19443
C          5.96695       -0.89423       -2.22005
C          7.31210       -1.14437       -2.83561
H          7.99148       -0.29460       -2.66041
H          7.79118       -2.03470       -2.39879
H          7.23741       -1.29719       -3.92114
C          2.74018        1.61710        1.77726
H          3.11228        0.71815        2.27287
C          1.61539        2.70548       -0.03998
H          1.07877        2.65255       -0.98919
C          2.92672        2.85166        2.39470
H          3.44187        2.89574        3.35837
C          1.81992        3.93654        0.56996
H          1.44546        4.84258        0.08600
C          2.46208        4.03372        1.80943
C          2.60722        5.36262        2.48899
H          3.12334        6.08845        1.84124
H          1.61548        5.78279        2.72044
H          3.17293        5.28056        3.42742
