78
Cat331.ts34.5.log	Energy: -3219876.3500150
C         -0.90158        0.30325       -3.81405
H         -0.71690       -0.51951       -4.50981
H         -1.94891        0.61223       -3.74211
C          0.11545        1.28371       -3.64638
H          1.08199        1.16355       -4.14423
H         -0.18109        2.33425       -3.55103
H          0.21157        1.45471       -2.00194
Rh         0.02611       -0.14709       -1.93388
C         -1.59796        1.76859        0.49544
C         -3.46440        0.42268       -1.22426
C         -2.18821       -1.05875        0.76081
C          1.63547       -1.47283        0.86489
C          3.42198       -0.61330       -1.18510
C          2.19186        1.32742        0.51793
P          1.78928       -0.19307       -0.44050
P         -1.78779        0.23286       -0.48738
C          0.23435       -1.97194       -2.38007
O          0.37655       -3.08214       -2.65568
C         -1.20223        1.78088        1.83699
H         -1.14202        0.84493        2.39460
C         -1.67113        2.99462       -0.18521
H         -1.95923        3.01282       -1.24026
C         -0.87315        2.97167        2.48190
H         -0.54330        2.97098        3.52193
C         -1.37031        4.19164        0.45127
H         -1.43361        5.14147       -0.08248
C         -0.95713        4.17272        1.78476
Cl        -0.50963        5.65212        2.56057
C         -3.82063       -0.49732       -2.21943
H         -3.08720       -1.23968       -2.54750
C         -4.40990        1.36912       -0.81446
H         -4.16195        2.09232       -0.03429
C         -5.08791       -0.48075       -2.79136
H         -5.36457       -1.20045       -3.56341
C         -5.67864        1.40493       -1.38787
H         -6.41518        2.14480       -1.07008
C         -6.01117        0.47812       -2.37420
Cl        -7.58619        0.51852       -3.09043
C         -3.07998       -0.82695        1.81767
H         -3.54379        0.15516        1.93978
C         -1.65031       -2.33801        0.60409
H         -0.95780       -2.52797       -0.21743
C         -3.39004       -1.83567        2.72235
H         -4.07430       -1.65465        3.55289
C         -1.97031       -3.36539        1.48754
H         -1.54015       -4.36046        1.36898
C         -2.82635       -3.10248        2.55316
Cl        -3.19641       -4.35643        3.68536
C          1.96134       -2.80205        0.56536
H          2.41998       -3.05033       -0.39493
C          1.04228       -1.19193        2.10160
H          0.77197       -0.16559        2.35338
C          1.69662       -3.82396        1.47186
H          1.94294       -4.85961        1.23221
C          0.78025       -2.20243        3.02038
H          0.30420       -1.98066        3.97663
C          1.10101       -3.51833        2.69520
Cl         0.71625       -4.79011        3.80204
C          3.53783       -0.64282       -2.57643
H          2.64390       -0.44877       -3.17660
C          4.55366       -0.88803       -0.40596
H          4.48696       -0.88696        0.68398
C          4.75526       -0.93189       -3.18894
H          4.84504       -0.95771       -4.27602
C          5.77400       -1.18207       -1.00169
H          6.65571       -1.40131       -0.39749
C          5.86776       -1.19899       -2.39513
Cl         7.38525       -1.56474       -3.14059
C          2.92648        1.28971        1.71224
H          3.24383        0.33495        2.13597
C          1.80169        2.57340        0.02025
H          1.21683        2.61959       -0.90047
C          3.24692        2.45740        2.39543
H          3.81032        2.42223        3.32919
C          2.12426        3.75212        0.68539
H          1.80442        4.71984        0.29741
C          2.84218        3.68758        1.87671
Cl         3.22983        5.14108        2.72747
