80
Cat352.ts34.5.log	Energy: -1255532.5655069
C         -1.81202       -1.32637        2.38480
H         -1.40710       -1.52207        3.38103
H         -2.70299       -0.69000        2.37062
C         -1.68280       -2.33036        1.38923
H         -1.14367       -3.25515        1.61282
H         -2.50975       -2.46502        0.68185
H         -1.03286       -1.55969        0.07297
Rh        -0.17411       -0.69176        1.12650
C         -3.06119        0.51900       -0.42132
C         -2.10263        2.30880        1.63382
C         -0.84073        2.28455       -1.02245
C          2.73860        0.16465       -0.64732
C          2.92461       -2.25495        0.87696
C          1.38657       -2.15265       -1.74915
P          1.68979       -1.25749       -0.13189
P         -1.47504        1.12769        0.31177
C          0.91892       -0.18887        2.56341
O          1.62421        0.08868        3.43829
C         -2.98764       -0.47456       -1.41385
H         -2.00714       -0.83737       -1.73013
C         -4.34086        0.90396       -0.00440
H         -4.47016        1.65713        0.77333
C         -4.12938       -1.02664       -1.97927
H         -4.02645       -1.79410       -2.75222
C         -5.48754        0.33565       -0.56163
H         -6.46925        0.65889       -0.20377
C         -5.40879       -0.63334       -1.56259
C         -6.63776       -1.24617       -2.16669
H         -7.55450       -0.82932       -1.72683
H         -6.67582       -1.07334       -3.25416
H         -6.65593       -2.33711       -2.01365
H         -2.92172        1.72669        2.08997
C         -1.07998        2.54909        2.73836
H         -1.51009        3.20993        3.50846
H         -0.78647        1.60760        3.21824
H         -0.16302        3.02708        2.36316
C         -2.67621        3.62354        1.11166
H         -3.38707        3.48466        0.28441
H         -3.20334        4.15443        1.92130
H         -1.87939        4.29339        0.75472
H         -1.63349        3.02630       -1.21406
C          0.41058        2.99405       -0.51637
H          0.85167        3.60759       -1.31816
H          0.19938        3.65918        0.33249
H          1.17045        2.26807       -0.19290
C         -0.56338        1.53541       -2.31756
H         -1.48676        1.18933       -2.80160
H         -0.03375        2.19133       -3.02695
H          0.07887        0.66203       -2.12938
C          3.38067        0.90669        0.35868
H          3.29537        0.60243        1.40403
C          2.85724        0.62398       -1.96261
H          2.37553        0.09191       -2.78380
C          4.10813        2.04991        0.05599
H          4.59327        2.60279        0.86549
C          3.58128        1.77873       -2.26058
H          3.64790        2.11223       -3.30007
C          4.21960        2.51529       -1.26178
C          4.97789        3.77161       -1.57293
H          5.11388        3.90385       -2.65548
H          4.44479        4.65841       -1.19235
H          5.97282        3.76738       -1.10166
H          2.99923       -1.61339        1.77161
C          2.31376       -3.57364        1.33455
H          2.92924       -4.02258        2.13015
H          1.29876       -3.41660        1.72987
H          2.26092       -4.30352        0.51169
C          4.33308       -2.43139        0.32180
H          4.74132       -1.49499       -0.08499
H          5.00517       -2.76365        1.12994
H          4.37644       -3.19418       -0.46687
H          0.92751       -1.34893       -2.35281
C          2.63076       -2.65891       -2.47428
H          2.38188       -2.89777       -3.52119
H          3.45552       -1.93380       -2.48031
H          3.00022       -3.58612       -2.01288
C          0.34848       -3.26457       -1.64297
H         -0.58941       -2.90927       -1.19747
H          0.12466       -3.65772       -2.64758
H          0.70999       -4.10520       -1.03307
