126
Cat451.ts34.5.log	Energy: -2351710.3588839
C         -0.81236       -2.32364       -2.22879
H         -0.24131       -3.25278       -2.16234
H         -1.89528       -2.42548       -2.12548
C         -0.27512       -1.22189       -2.91779
H          0.72171       -1.29116       -3.35225
H         -0.95654       -0.52347       -3.41572
H         -0.04991        0.08873       -1.85084
Rh         0.08126       -1.03008       -0.69709
C         -2.65952        0.75937       -1.54242
C         -3.55140       -1.29340        0.35258
C         -2.41653        0.90828        1.43592
C          2.22141       -0.06837        1.65408
C          3.71521       -0.92367       -0.74954
C          2.65771        1.61651       -0.76625
P          2.14121       -0.08344       -0.18918
P         -2.09810       -0.17356       -0.04785
C          0.43304       -2.38354        0.54351
O          0.68401       -3.19591        1.33029
C         -2.00845        1.96815       -1.86414
O         -1.07594        2.39160       -0.99347
C         -0.27896        3.48925       -1.33212
H          0.52674        3.53555       -0.59160
H          0.18271        3.36901       -2.32497
H         -0.85469        4.43328       -1.31510
C         -3.52297        0.21905       -2.51291
O         -4.01429       -1.01429       -2.27152
C         -4.98345       -1.56815       -3.10688
H         -5.27482       -2.52205       -2.64761
H         -4.59453       -1.76175       -4.12264
H         -5.87657       -0.92287       -3.18477
C         -3.82972        0.91475       -3.69159
H         -4.51957        0.49025       -4.41987
C         -2.30742        2.66979       -3.03862
H         -1.81862        3.61834       -3.25618
C         -3.23030        2.14262       -3.93595
H         -3.46868        2.68917       -4.85163
C         -4.85020       -0.74706        0.44558
O         -4.96229        0.55184        0.12832
C         -6.19412        1.19758        0.19911
H         -6.01221        2.23331       -0.11353
H         -6.93794        0.74514       -0.48106
H         -6.60263        1.19616        1.22538
C         -3.42020       -2.66940        0.61961
O         -2.20031       -3.21922        0.51058
C         -2.04799       -4.60190        0.63086
H         -0.98848       -4.81295        0.44577
H         -2.66513       -5.14682       -0.10530
H         -2.30317       -4.96037        1.64423
C         -4.53303       -3.44931        0.98325
H         -4.41429       -4.51007        1.19659
C         -5.96101       -1.51471        0.81256
H         -6.95071       -1.06535        0.88265
C         -5.78672       -2.86620        1.08208
H         -6.64536       -3.47658        1.37299
C         -3.01667        2.17973        1.51493
O         -3.38670        2.78076        0.36862
C         -3.71673        4.13327        0.36063
H         -3.82704        4.41638       -0.69553
H         -4.66984        4.33938        0.88224
H         -2.92735        4.75578        0.81959
C         -2.06949        0.27874        2.65258
O         -1.53656       -0.94528        2.52789
C         -1.20825       -1.70114        3.66005
H         -0.79119       -2.64161        3.28267
H         -2.10102       -1.90879        4.27582
H         -0.44161       -1.19632        4.27007
C         -2.30012        0.88268        3.89513
H         -2.02288        0.37451        4.81751
C         -3.25128        2.79012        2.75808
H         -3.72827        3.76844        2.80754
C         -2.89817        2.13700        3.93273
H         -3.09288        2.61540        4.89572
C          1.44501        0.88253        2.34398
O          0.76022        1.75069        1.58190
C          0.19240        2.87730        2.18420
H         -0.31133        3.43614        1.38890
H         -0.55906        2.60843        2.93973
H          0.96608        3.51227        2.65156
C          2.82913       -1.08549        2.40973
O          3.47481       -2.04678        1.72055
C          3.88732       -3.21351        2.36483
H          4.29404       -3.86765        1.58254
H          3.04036       -3.72128        2.85690
H          4.68003       -3.02090        3.11028
C          2.76414       -1.08779        3.81036
H          3.25857       -1.87093        4.38389
C          1.39681        0.90429        3.74303
H          0.81351        1.66230        4.26336
C          2.06854       -0.07828        4.46387
H          2.02874       -0.06936        5.55610
C          4.94624       -0.55298       -0.17004
O          4.88468        0.41478        0.75792
C          5.98367        0.67780        1.57302
H          5.63995        1.38868        2.33464
H          6.34454       -0.23602        2.07683
H          6.82091        1.12973        1.01109
C          3.74610       -1.93600       -1.72854
O          2.58907       -2.29233       -2.31434
C          2.55778       -3.39876       -3.16602
H          1.50969       -3.52888       -3.46393
H          2.90456       -4.31743       -2.66111
H          3.16737       -3.24308       -4.07480
C          4.95504       -2.55999       -2.08395
H          4.96909       -3.34407       -2.83894
C          6.15290       -1.16717       -0.52075
H          7.08960       -0.86341       -0.05495
C          6.14140       -2.17208       -1.47931
H          7.07686       -2.65953       -1.76513
C          2.63985        1.77510       -2.16940
O          2.31817        0.67505       -2.87336
C          2.39995        0.69040       -4.26766
H          2.19894       -0.33496       -4.60105
H          1.64769        1.36275       -4.71629
H          3.40499        0.98815       -4.61332
C          3.11770        2.71783       -0.00946
O          3.27418        2.56731        1.31628
C          3.76562        3.61240        2.09492
H          3.78372        3.23939        3.12804
H          3.11936        4.50794        2.05602
H          4.78837        3.90666        1.79654
C          3.42192        3.94151       -0.62962
H          3.75355        4.79018       -0.03343
C          2.95443        2.98875       -2.79308
H          2.91190        3.08582       -3.87685
C          3.32879        4.07057       -2.00834
H          3.57180        5.02586       -2.47975
