82
Cat42.ts34.5.log	Energy: -1397401.4281571
C         -0.60486       -3.35521       -0.88011
H         -0.64215       -4.14793       -0.12788
H         -1.52162       -3.24933       -1.46907
C          0.65008       -3.08007       -1.50419
H          1.55253       -3.59708       -1.16461
H          0.66230       -2.88549       -2.58299
H          0.75966       -1.45305       -1.47146
Rh         0.12143       -1.55383        0.01998
C         -1.57607        0.72429       -2.21398
C         -3.33937       -0.81671       -0.53139
C         -1.88525        1.31861        0.58098
C          1.75497        0.67226        2.23076
C          3.47416       -0.63173        0.33196
C          1.72070        1.44932       -0.56893
P          1.75267       -0.02234        0.51993
P         -1.63901       -0.10197       -0.56405
C         -0.06737       -2.17690        1.78846
O         -0.17437       -2.52429        2.88580
H         -0.67652        1.36062       -2.18903
C         -1.48734       -0.28098       -3.34981
H         -2.37306       -0.93486       -3.38012
H         -0.60105       -0.92205       -3.23337
H         -2.44010        1.39327       -2.35527
H         -1.41098        0.22916       -4.32212
C         -3.56277       -1.99205        0.19026
H         -2.71362       -2.47813        0.67738
C         -4.43434       -0.20101       -1.15122
H         -4.30244        0.73255       -1.70376
C         -4.84168       -2.53684        0.28901
H         -4.99129       -3.45430        0.86529
C         -5.70667       -0.75410       -1.06040
H         -6.54636       -0.25469       -1.55280
C         -5.93499       -1.93424       -0.33955
C         -7.30707       -2.53761       -0.26758
H         -8.08052       -1.76514       -0.14131
H         -7.54537       -3.08629       -1.19416
H         -7.39212       -3.24790        0.56698
C         -2.07346        2.63995        0.16776
H         -2.09241        2.89194       -0.89348
C         -1.85515        1.05605        1.95819
H         -1.69199        0.03067        2.30114
C         -2.21127        3.66689        1.10205
H         -2.34417        4.69476        0.75171
C         -2.00511        2.08003        2.88511
H         -1.97605        1.84529        3.95320
C         -2.17902        3.41019        2.47485
C         -2.34071        4.50970        3.48314
H         -3.30939        4.42934        4.00324
H         -1.55706        4.46528        4.25523
H         -2.29778        5.50114        3.01067
H          1.71750       -0.21622        2.88137
C          2.90270        1.58578        2.62334
H          2.97908        2.46083        1.96039
H          3.86595        1.05645        2.58645
H          0.77481        1.16280        2.34975
H          2.76360        1.95740        3.65061
C          3.72116       -1.98807        0.56757
H          2.87320       -2.63981        0.80067
C          4.55489        0.20081        0.01575
H          4.38738        1.26357       -0.17538
C          5.01510       -2.49659        0.49831
H          5.18667       -3.55923        0.69246
C          5.84475       -0.31637       -0.06413
H          6.67553        0.34950       -0.31503
C          6.09937       -1.67258        0.17495
C          7.48694       -2.23106        0.05474
H          8.24872       -1.47648        0.29889
H          7.63274       -3.09531        0.71882
H          7.68436       -2.57348       -0.97507
C          1.17898        2.67060       -0.16368
H          0.83312        2.81228        0.86170
C          2.11269        1.30895       -1.90965
H          2.52076        0.35483       -2.25474
C          1.03648        3.72152       -1.07114
H          0.59700        4.66256       -0.72899
C          1.97472        2.35983       -2.80588
H          2.28635        2.22368       -3.84550
C          1.42993        3.58973       -2.40389
C          1.28451        4.71884       -3.38121
H          2.26944        5.09431       -3.70343
H          0.75104        4.39617       -4.28891
H          0.73215        5.56228       -2.94393
