104
Cat492.ts34.5.log	Energy: -1781523.0771293
C         -1.76230        2.43604        3.26931
H         -1.47014        3.48512        3.35996
H         -2.83574        2.28455        3.12374
C         -1.02256        1.46329        4.00509
H         -0.14474        1.77199        4.57926
H         -1.56666        0.63473        4.47072
H         -0.67661        0.25602        2.90578
Rh        -0.47774        1.47090        1.84589
O         -1.95424       -1.12517        0.45125
C         -3.88601        0.78376        0.99846
C         -2.12662        1.02057       -1.30927
O          1.43478        0.47762       -0.62907
C          2.91584        0.80152        1.75958
C          1.20441       -1.55062        1.20337
P          1.27678        0.29874        1.03338
P         -2.11049        0.55451        0.49100
C          0.29908        3.11250        1.31155
O          0.83741        4.08817        1.00959
C         -2.54348       -2.18204       -0.17014
C         -2.56783       -3.37495        0.56191
H         -2.17420       -3.36479        1.58004
C         -3.02252       -2.17014       -1.48214
H         -2.99992       -1.25816       -2.07292
C         -3.07791       -4.53703       -0.00578
H         -3.08333       -5.46155        0.57703
C         -3.54934       -3.33672       -2.03362
H         -3.93681       -3.30911       -3.05480
C         -3.57953       -4.52493       -1.30767
H         -3.98663       -5.43489       -1.75322
H         -3.88945        0.60878        2.08505
H         -4.06433        1.86178        0.85376
C         -4.92064       -0.06481        0.32844
C         -5.50451        0.30003       -0.89162
H         -5.26038        1.26017       -1.35132
C         -5.29996       -1.28026        0.90836
H         -4.85851       -1.56758        1.86729
C         -6.41245       -0.54944       -1.51823
H         -6.86383       -0.25361       -2.46848
C         -6.20789       -2.14642        0.29418
C         -6.55264       -3.46324        0.92419
H         -7.52259       -3.84018        0.56968
H         -5.78735       -4.21551        0.67288
H         -6.59134       -3.38796        2.02085
C         -6.75576       -1.76670       -0.93610
H         -7.46831       -2.42852       -1.43563
H         -1.27635        0.47305       -1.74364
H         -3.05390        0.66450       -1.78044
C         -1.95882        2.49670       -1.51813
C         -3.04547        3.37209       -1.40789
H         -4.04349        2.98463       -1.19143
C         -0.70030        3.02766       -1.81739
H          0.14936        2.34583       -1.90082
C         -2.86775        4.74120       -1.58810
H         -3.72354        5.41554       -1.50417
C         -0.50442        4.39904       -2.00702
C          0.86187        4.94832       -2.29343
H          1.47954        4.22880       -2.84943
H          0.80801        5.88199       -2.87192
H          1.38358        5.17198       -1.34809
C         -1.60735        5.25134       -1.88510
H         -1.47535        6.32707       -2.03009
C          2.52501        0.83753       -1.36207
C          3.11310       -0.09631       -2.21796
H          2.71373       -1.10957       -2.25412
C          3.00758        2.14842       -1.31005
H          2.51519        2.87862       -0.66518
C          4.20273        0.28131       -2.99793
H          4.66044       -0.45372       -3.66480
C          4.10622        2.51109       -2.08870
H          4.48344        3.53534       -2.03882
C          4.71176        1.57973       -2.93111
H          5.57099        1.86710       -3.54100
H          3.14090        1.78514        1.32003
H          2.62550        1.00271        2.80206
C          4.10204       -0.11362        1.71962
C          4.31904       -1.01522        2.77096
H          3.63213       -1.03014        3.62187
C          5.01785       -0.08796        0.66368
H          4.87548        0.62422       -0.15096
C          5.40607       -1.88457        2.74266
H          5.56342       -2.58608        3.56550
C          6.11431       -0.95478        0.61824
C          7.07946       -0.88656       -0.52897
H          6.54894       -0.74582       -1.48234
H          7.76652       -0.03187       -0.41412
H          7.69159       -1.79700       -0.59822
C          6.29368       -1.86192        1.66841
H          7.14236       -2.55104        1.64755
H          1.74074       -1.79128        2.13443
H          0.13642       -1.75074        1.36291
C          1.71448       -2.35442        0.04360
C          0.86534       -2.61226       -1.04016
H         -0.15724       -2.23570       -1.02435
C          3.01870       -2.85599        0.00719
H          3.68774       -2.67050        0.84911
C          1.31831       -3.35269       -2.12752
H          0.64118       -3.55663       -2.96055
C          3.49465       -3.58978       -1.08519
C          4.91610       -4.07169       -1.11717
H          5.30562       -4.23986       -0.10321
H          5.01485       -5.00551       -1.68987
H          5.57080       -3.32215       -1.59234
C          2.62610       -3.83516       -2.15455
H          2.97629       -4.41546       -3.01295
