98
Cat452.ts34.5.log	Energy: -1965948.7810957
C         -0.59897        2.92020       -2.07248
H         -0.19667        3.06414       -3.07822
H         -1.68860        2.86482       -2.00810
C          0.14690        3.39784       -0.97139
H          1.12371        3.86557       -1.11792
H         -0.39857        3.76429       -0.09434
H          0.38554        2.09109        0.07371
Rh         0.41300        1.17278       -1.25841
C         -2.55286        1.36296        0.52070
O         -2.43000       -0.71223       -1.34397
O         -1.06533       -0.96264        0.78624
C          1.95498       -1.31658        0.69170
O          3.36249       -0.27172       -1.39243
O          3.09136        1.09888        0.75417
P          2.18509        0.19606       -0.31151
P         -1.43266        0.18571       -0.35837
C          0.77809        0.39507       -2.95040
O          0.99386       -0.15276       -3.93787
C         -2.15739        1.86211        1.77990
O         -1.05074        1.31087        2.31323
C         -0.41269        1.92214        3.39858
H          0.53786        1.38900        3.51939
H         -0.20839        2.98780        3.19802
H         -1.00328        1.83699        4.32784
C         -3.60544        2.02807       -0.14057
O         -3.81940        1.67462       -1.41991
C         -5.00651        2.05423       -2.06255
H         -5.00608        1.54446       -3.03349
H         -5.05240        3.14459       -2.22560
H         -5.89013        1.72679       -1.48964
C         -4.34697        3.02779        0.50042
H         -5.18543        3.50550       -0.00451
C         -2.87560        2.87967        2.41743
H         -2.57850        3.23530        3.40338
C         -3.97911        3.43369        1.77756
H         -4.55116        4.21922        2.27685
C         -3.75178       -1.03455       -1.35461
C         -4.57665       -1.03807       -0.22672
H         -4.17943       -0.76775        0.75089
C         -4.27392       -1.40144       -2.59847
H         -3.60524       -1.38966       -3.46126
C         -5.91700       -1.39473       -0.35888
H         -6.55187       -1.39606        0.53058
C         -5.61244       -1.76461       -2.71559
H         -6.00742       -2.05283       -3.69314
C         -6.44552       -1.75902       -1.59666
H         -7.49602       -2.04365       -1.68718
C         -1.89951       -1.84673        1.39913
C         -2.22909       -3.04237        0.75741
H         -1.83573       -3.22580       -0.24256
C         -2.38532       -1.57652        2.67925
H         -2.09513       -0.64240        3.15892
C         -3.06345       -3.95738        1.39091
H         -3.33074       -4.88562        0.88035
C         -3.22016       -2.50051        3.30546
H         -3.60431       -2.28694        4.30617
C         -3.56616       -3.68972        2.66464
H         -4.22486       -4.40829        3.15742
C          1.97413       -1.42157        2.09606
O          2.32053       -0.33367        2.81397
C          2.54523       -0.46315        4.18795
H          2.92224        0.50879        4.53333
H          1.62063       -0.70482        4.74218
H          3.30194       -1.23589        4.40830
C          1.52469       -2.43910       -0.04877
O          1.44942       -2.24887       -1.37600
C          1.00141       -3.27172       -2.21985
H          0.98297       -2.84511       -3.23009
H         -0.01705       -3.60072       -1.95233
H          1.68441       -4.13814       -2.19925
C          1.19582       -3.64728        0.56822
H          0.88270       -4.50887       -0.01896
C          1.63002       -2.62960        2.71911
H          1.64398       -2.71530        3.80416
C          1.25277       -3.72428        1.95322
H          0.98062       -4.65739        2.45151
C          4.30790       -1.23346       -1.18585
C          4.54914       -2.12123       -2.23575
H          3.96632       -2.00890       -3.15172
C          5.02663       -1.33524        0.00752
H          4.83158       -0.62774        0.81481
C          5.51163       -3.11608       -2.09008
H          5.70066       -3.80837       -2.91442
C          5.98200       -2.34097        0.14275
H          6.54228       -2.42282        1.07744
C          6.22885       -3.23390       -0.89876
H          6.98073       -4.01790       -0.78459
C          3.24350        2.44256        0.58957
C          2.88017        3.27877        1.64482
H          2.48030        2.82471        2.55244
C          3.75523        2.97720       -0.59509
H          4.03188        2.30379       -1.40798
C          3.02617        4.65824        1.51413
H          2.74048        5.31313        2.34114
C          3.89238        4.35838       -0.71649
H          4.28868        4.77767       -1.64444
C          3.52762        5.20359        0.33232
H          3.63662        6.28541        0.22914
