68
Cat408.ts34.5.log	Energy: -1156945.7918560
C         -3.68502        0.92369       -1.07398
H         -4.56896        0.54622       -0.55306
H         -3.63118        2.01532       -1.12939
C         -3.17605        0.15903       -2.16971
H         -3.62612       -0.80920       -2.40717
H         -2.83631        0.69584       -3.06287
H         -1.57193        0.09675       -1.89500
Rh        -1.95715       -0.07993       -0.32002
C          1.13937        1.70524       -0.25246
C         -1.10636        3.37245       -0.68147
C         -0.60199        2.31714        1.95873
C          1.01787       -1.51453        0.86783
C         -1.04094       -3.40208        0.36996
C          0.35656       -2.22386       -1.88253
P         -0.40863       -1.77998       -0.25918
P         -0.64240        1.79743        0.18660
C         -2.83716       -0.71310        1.21457
O         -3.33653       -1.10793        2.18018
C          2.18709        1.97337        0.63186
H          1.98638        2.25555        1.66596
C          1.45060        1.32016       -1.56472
H          0.63002        1.08194       -2.24967
C          3.50927        1.86949        0.19916
H          4.32283        2.07774        0.89868
C          2.76733        1.21165       -2.01299
C          3.07480        0.76767       -3.41431
H          2.16695        0.72863       -4.03260
H          3.79142        1.44494       -3.90409
H          3.52705       -0.23822       -3.42169
C          3.79993        1.49826       -1.10851
H          4.84115        1.42104       -1.43472
H         -2.17374        3.53727       -0.46034
C         -0.28310        4.60933       -0.36824
H          0.78750        4.43748       -0.55877
H         -0.39015        4.91535        0.68375
H         -1.06150        3.12731       -1.75581
H         -0.60215        5.46218       -0.98813
H          0.06932        3.18185        2.08712
C         -1.98631        2.62673        2.50616
H         -2.66423        1.77071        2.37607
H         -2.44161        3.49120        1.99785
H         -0.15028        1.47300        2.50424
H         -1.93870        2.86462        3.57975
C          0.72508       -1.23435        2.21000
H         -0.31581       -1.18715        2.54190
C          2.35367       -1.51946        0.45853
H          2.60637       -1.69326       -0.58900
C          1.75339       -0.98938        3.11440
H          1.51692       -0.77017        4.15875
C          3.39928       -1.27815        1.35726
C          4.82724       -1.33018        0.89848
H          5.26678       -2.32313        1.09181
H          4.90746       -1.13410       -0.17997
H          5.44776       -0.59086        1.42607
C          3.08159       -1.01242        2.69213
H          3.88391       -0.81300        3.40809
H         -1.33817       -3.21807        1.41459
C         -2.22223       -3.92570       -0.42961
H         -1.94527       -4.15062       -1.47179
H         -3.02952       -3.17774       -0.45610
H         -0.20961       -4.12471        0.40032
H         -2.61940       -4.85086        0.01522
H          1.01452       -1.37604       -2.13395
C          1.08393       -3.55577       -1.99154
H          0.39022       -4.40372       -1.89444
H          1.85753       -3.67598       -1.21915
H         -0.47267       -2.17177       -2.60535
H          1.57547       -3.64886       -2.97273
