90
Cat459.ts34.5.log	Energy: -1493502.6826785
C         -1.44258        0.99689       -2.78580
H         -1.07049        0.78736       -3.79234
H         -2.43284        0.58501       -2.57031
C         -1.05333        2.21651       -2.16689
H         -0.35881        2.88764       -2.67983
H         -1.78975        2.74067       -1.54703
H         -0.49384        1.76933       -0.64029
Rh         0.09142        0.45313       -1.38505
C         -3.00781        0.14583        0.16867
C         -1.72362       -2.43246       -0.60559
C         -0.94755       -1.09887        1.77924
C          2.38236       -0.45763        1.12728
C          3.65848        1.05286       -0.94453
C          1.90278        2.44437        0.80120
P          1.99046        0.84874       -0.13240
P         -1.38212       -0.72068        0.02215
C          0.89001       -0.73660       -2.59229
O          1.34626       -1.48798       -3.34694
C         -3.07197        1.30397        0.97564
O         -1.95687        1.59503        1.68165
C         -1.88014        2.78888        2.40317
H         -0.86983        2.82720        2.83099
H         -2.02397        3.66943        1.75285
H         -2.61809        2.82520        3.22376
C         -4.13547       -0.13285       -0.63060
O         -4.03896       -1.19160       -1.46348
C         -5.09257       -1.49629       -2.33006
H         -4.77123       -2.36873       -2.91359
H         -5.30797       -0.66374       -3.02238
H         -6.01620       -1.75454       -1.78281
C         -5.28786        0.66266       -0.57884
H         -6.15472        0.42346       -1.19298
C         -4.21590        2.10737        1.03117
H         -4.24844        2.98836        1.67065
C         -5.31951        1.77177        0.25608
H         -6.21749        2.39243        0.29621
H         -2.61630       -2.87446       -0.13713
H         -1.94730       -2.31272       -1.67376
C         -0.49973       -3.32545       -0.42836
H         -0.42030       -3.65582        0.62067
H          0.40730       -2.73012       -0.63012
C         -0.52409       -4.53758       -1.34622
H         -1.43493       -5.13982       -1.19656
H         -0.49737       -4.22788       -2.40297
H          0.34044       -5.19743       -1.16991
H         -0.06985       -1.76077        1.71412
H         -0.58934       -0.16174        2.22228
C         -2.03114       -1.72797        2.63985
H         -2.35584       -2.68352        2.19351
H         -2.92313       -1.07929        2.64084
C         -1.56761       -1.96856        4.06913
H         -0.67214       -2.61032        4.09525
H         -1.30353       -1.01827        4.56194
H         -2.34818       -2.45102        4.67781
C          2.17694       -0.36313        2.51807
O          1.72048        0.81546        2.99706
C          1.51131        0.97439        4.37006
H          1.16728        2.00727        4.51401
H          0.73834        0.28461        4.75090
H          2.43957        0.82665        4.94888
C          2.77522       -1.71900        0.62416
O          2.92218       -1.79661       -0.71230
C          3.28499       -3.01016       -1.31457
H          3.28273       -2.82588       -2.39484
H          2.55434       -3.80572       -1.09237
H          4.28835       -3.33688       -0.99146
C          2.98822       -2.81923        1.46237
H          3.29382       -3.78035        1.05215
C          2.39840       -1.45626        3.36625
H          2.23872       -1.36685        4.43940
C          2.80000       -2.67283        2.83051
H          2.96507       -3.52544        3.49325
H          4.22640        1.77168       -0.32829
H          4.18309        0.09100       -0.87731
C          3.60595        1.50323       -2.39710
H          2.99650        2.41675       -2.49094
H          3.07062        0.74082       -2.98332
C          4.99042        1.73843       -2.98095
H          5.53031        2.53037       -2.43620
H          5.60643        0.82600       -2.92629
H          4.93553        2.03962       -4.03843
H          0.97360        2.40137        1.38400
H          2.73564        2.50609        1.51853
C          1.88562        3.66059       -0.11544
H          1.15027        3.49688       -0.91961
H          2.86368        3.77369       -0.61196
C          1.55053        4.93929        0.63752
H          0.54968        4.87655        1.09519
H          2.27167        5.13097        1.44873
H          1.55712        5.81572       -0.02867
