58
Cat494.ts34.5.log	Energy: -1152719.0312015
C         -4.05338       -0.68837       -0.83735
H         -4.48381       -1.64906       -1.13150
H         -4.59786       -0.18100       -0.03490
C         -3.41941        0.10167       -1.84369
H         -3.30813       -0.30018       -2.85445
H         -3.57404        1.18689       -1.83449
H         -2.01593        0.58633       -1.11340
Rh        -1.94608       -0.91873       -0.52931
O         -0.98416        1.17128        2.10584
C         -3.37312        0.08817        2.61227
C         -0.95079       -1.35569        2.79672
O          1.22676       -0.68869        0.26980
C          0.99760       -2.21285       -1.98508
C          0.76116        0.60859       -2.10792
P          0.23440       -0.81304       -1.09327
P         -1.83684       -0.23036        1.67037
C         -1.99229       -2.81372       -0.54434
O         -1.97248       -3.96611       -0.52833
C         -0.60740        2.13619        1.23621
C         -1.50818        2.75612        0.36664
H         -2.55817        2.45874        0.37723
C          0.72980        2.54187        1.23536
H          1.42300        2.04174        1.91371
C         -1.06578        3.75346       -0.50108
H         -1.78272        4.22314       -1.18045
C          1.15393        3.54856        0.37492
H          2.20409        3.85594        0.39014
C          0.26950        4.16917       -0.51859
C          0.73721        5.26251       -1.43535
H          0.03238        5.42229       -2.26376
H          1.72254        5.03219       -1.86825
H          0.83593        6.22024       -0.89741
H         -3.97330       -0.83397        2.63162
H         -3.14707        0.41086        3.63950
H         -3.96149        0.86968        2.10997
H         -0.87829       -0.93581        3.81108
H         -1.47941       -2.32007        2.82015
H          0.05415       -1.51037        2.38059
C          2.59064       -0.75398        0.24392
C          3.36156        0.37932       -0.02000
H          2.86184        1.32596       -0.22835
C          3.22474       -1.96346        0.53795
H          2.61226       -2.84179        0.75216
C          4.75210        0.29179        0.00190
H          5.34451        1.18708       -0.20711
C          4.61371       -2.03490        0.55706
H          5.09551       -2.98945        0.78723
C          5.40590       -0.91106        0.28864
C          6.90418       -0.99264        0.34020
H          7.37225       -0.15843       -0.20154
H          7.27228       -1.93245       -0.09792
H          7.26839       -0.95540        1.38054
H          2.07896       -2.07437       -2.13463
H          0.81698       -3.14478       -1.43121
H          0.49733       -2.29423       -2.96113
H          0.51388        1.53744       -1.57420
H          1.83465        0.58199       -2.34499
H          0.17871        0.57834       -3.04057
