86
Cat47.ts34.5.log	Energy: -1586143.4206333
C         -0.17534       -3.72818        1.33891
H         -0.12221       -4.06509        2.37707
H         -1.13687       -3.89309        0.84543
C          1.01892       -3.72478        0.57000
H          1.97212       -3.98309        1.03789
H          0.96861       -4.00712       -0.48775
H          1.06184       -2.24622       -0.12419
Rh         0.45333       -1.66588        1.26077
C         -1.22440       -0.31992       -1.62051
O         -2.64585       -1.93433        0.03719
O         -2.10758        0.46270        0.83399
C          2.69531        0.72615        2.60922
O          3.49877       -0.52467        0.43509
O          1.59727        1.19177        0.12367
P          2.03004       -0.09956        1.11535
P         -1.36091       -0.85157        0.13304
C          0.14797       -1.41654        3.12123
O         -0.06165       -1.25151        4.23924
H         -0.43945        0.45338       -1.63127
C         -0.85189       -1.48637       -2.52287
H         -1.62617       -2.26810       -2.51238
H          0.08960       -1.95475       -2.19799
H         -2.16038        0.16632       -1.93969
H         -0.71970       -1.15053       -3.56252
C         -3.94999       -1.57189       -0.14412
C         -4.48397       -1.39213       -1.42003
H         -3.85067       -1.54035       -2.29593
C         -4.76666       -1.40194        0.97586
H         -4.33154       -1.54127        1.96682
C         -5.82022       -1.02459       -1.56625
H         -6.22464       -0.87768       -2.57155
C         -6.09985       -1.04082        0.81445
H         -6.72603       -0.90320        1.70052
C         -6.65270       -0.83891       -0.45776
C         -8.09816       -0.46714       -0.62106
H         -8.28802       -0.00836       -1.60193
H         -8.42215        0.24179        0.15547
H         -8.74812       -1.35462       -0.54134
C         -2.49403        1.62705        0.22146
C         -3.84370        1.89176       -0.00268
H         -4.59169        1.14823        0.27454
C         -1.53058        2.56989       -0.13741
H         -0.47926        2.33611        0.03332
C         -4.21595        3.10163       -0.58516
H         -5.27750        3.29823       -0.76063
C         -1.91903        3.77033       -0.72267
H         -1.15000        4.49540       -1.00497
C         -3.26872        4.06267       -0.95590
C         -3.68459        5.37455       -1.55653
H         -4.65558        5.29506       -2.06659
H         -2.94494        5.73707       -2.28572
H         -3.78525        6.15283       -0.78121
H          2.66022       -0.06587        3.37409
C          4.07971        1.35577        2.55995
H          4.12832        2.21017        1.87248
H          4.83028        0.62176        2.23700
H          1.91744        1.45342        2.89936
H          4.35769        1.71376        3.56306
C          3.60914       -1.39815       -0.60614
C          2.87146       -1.24411       -1.78095
H          2.17146       -0.41214       -1.87385
C          4.49349       -2.46951       -0.47916
H          5.05258       -2.58045        0.45173
C          3.02355       -2.16520       -2.81620
H          2.43427       -2.03814       -3.72860
C          4.63727       -3.37595       -1.52367
H          5.33017       -4.21445       -1.40965
C          3.90509       -3.24535       -2.71175
C          4.08293       -4.22096       -3.83889
H          3.24623       -4.17126       -4.55013
H          4.15408       -5.25499       -3.46920
H          5.00792       -4.01392       -4.40255
C          2.34059        2.33210       -0.04708
C          3.44349        2.34797       -0.90177
H          3.73890        1.43452       -1.41898
C          1.96209        3.49654        0.62116
H          1.09832        3.47486        1.28868
C          4.16795        3.52453       -1.06552
H          5.03700        3.52384       -1.72940
C          2.69632        4.66641        0.44311
H          2.39474        5.57114        0.97816
C          3.81280        4.70451       -0.39956
C          4.58697        5.97347       -0.60948
H          4.25104        6.49668       -1.52049
H          5.66236        5.77457       -0.72759
H          4.45901        6.66798        0.23309
