70
Cat440.ts34.5.log	Energy: -1485027.5409699
C         -2.21782       -3.30766       -0.21855
H         -3.27746       -3.28848       -0.48629
H         -1.56775       -3.86177       -0.90024
C         -1.87020       -3.24924        1.15860
H         -2.64921       -3.12493        1.91560
H         -1.01743       -3.84549        1.50138
H         -0.69308       -2.07427        1.22983
Rh        -1.56870       -1.27914        0.12598
C          1.90462       -0.74311       -0.65565
O          0.73632       -3.07955       -1.35905
O          0.27560       -1.08265       -2.76342
C         -0.33326        2.02125        0.63194
O         -2.60375        1.49439        1.71938
O         -0.67491        0.47608        2.85927
P         -1.27765        0.60762        1.33342
P          0.29987       -1.50509       -1.16762
C         -3.05493       -0.56317       -0.79751
O         -3.95482       -0.14163       -1.38385
C          2.39270        0.46218       -1.19615
O          1.60309        1.10794       -2.07055
C          2.12183        2.16554       -2.82605
H          1.31936        2.48193       -3.50437
H          2.39997        3.02396       -2.19393
H          2.99488        1.84578       -3.42128
C          2.64295       -1.34302        0.38520
O          2.08597       -2.43420        0.94827
C          2.75685       -3.10870        1.97144
H          2.11508       -3.95042        2.26103
H          2.91853       -2.46286        2.85287
H          3.73197       -3.50201        1.63473
C          3.88168       -0.83424        0.79122
H          4.45972       -1.32187        1.57498
C          3.64267        0.96855       -0.80752
H          4.03054        1.88411       -1.25144
C          4.37618        0.30687        0.16777
H          5.35161        0.70025        0.46509
C          1.84016       -3.45910       -2.14410
H          1.77292       -3.03700       -3.15922
H          2.79158       -3.13559       -1.68744
H          1.83436       -4.55669       -2.20774
C         -0.75936       -0.28185       -3.27658
H         -1.69761       -0.85172       -3.37986
H         -0.95341        0.59419       -2.63908
H         -0.44007        0.06091       -4.27185
C          0.93500        2.42899        1.08031
O          1.56096        1.63910        1.97072
C          2.69691        2.10990        2.63730
H          2.97921        1.32919        3.35533
H          3.54198        2.26862        1.94762
H          2.48673        3.04562        3.18367
C         -0.93039        2.74959       -0.41774
O         -2.07434        2.24295       -0.90506
C         -2.79982        2.93962       -1.87753
H         -3.68559        2.32876       -2.08960
H         -2.21896        3.06527       -2.80852
H         -3.11565        3.93232       -1.51355
C         -0.34960        3.92275       -0.91195
H         -0.83626        4.49973       -1.69701
C          1.52121        3.60752        0.59255
H          2.48891        3.93919        0.96550
C          0.86243        4.34845       -0.37953
H          1.31572        5.27218       -0.74826
C         -3.70320        0.85112        2.31665
H         -3.91206       -0.11783        1.82932
H         -3.52185        0.67729        3.39074
H         -4.57544        1.50976        2.20148
C          0.13973       -0.57847        3.29092
H          0.34026       -0.40978        4.35919
H         -0.35988       -1.55482        3.17342
H          1.09544       -0.60232        2.74595
