112
Cat480.ts34.5.log	Energy: -2158830.2806537
C         -1.17249        0.51113       -3.36239
H         -0.92989       -0.15416       -4.19538
H         -2.25058        0.65758       -3.22091
C         -0.26926        1.58926       -3.07469
H          0.67141        1.66049       -3.63069
H         -0.68847        2.57893       -2.85246
H         -0.11435        1.56485       -1.49853
Rh        -0.07431       -0.05388       -1.63128
O         -2.15987        0.96083        0.89587
C         -3.50744       -0.75718       -0.88686
C         -1.89602       -1.58577        1.26482
O          2.51046       -1.38922       -0.07872
C          3.18858        1.10215       -0.84612
C          1.33245        0.67376        1.42663
P          1.75395        0.08569       -0.26290
P         -1.86022       -0.36126       -0.11686
C          0.44048       -1.71928       -2.35280
O          0.79459       -2.72582       -2.79621
C         -2.40714        2.23494        0.57688
C         -2.50165        2.72492       -0.73250
H         -2.39903        2.03723       -1.57025
C         -2.62468        3.11176        1.64911
H         -2.56852        2.70333        2.65885
C         -2.78504        4.07006       -0.95480
H         -2.86164        4.43189       -1.98371
C         -2.91695        4.45286        1.41502
H         -3.09031        5.11961        2.26408
C         -2.99052        4.94762        0.11102
H         -3.21834        5.99979       -0.07232
C         -3.50619       -1.95778       -1.62773
O         -2.39053       -2.69512       -1.49685
C         -2.24056       -3.88675       -2.21251
H         -1.24516       -4.27131       -1.96327
H         -3.00584       -4.62911       -1.92588
H         -2.29012       -3.71650       -3.30161
C         -4.68989        0.00634       -0.89385
O         -4.74056        1.08802       -0.09616
C         -5.74043        2.04809       -0.27423
H         -5.46528        2.89878        0.36353
H         -6.73324        1.67183        0.03149
H         -5.79572        2.39304       -1.32113
C         -5.78161       -0.36919       -1.69263
H         -6.68722        0.23622       -1.70328
C         -4.59191       -2.34429       -2.41914
H         -4.56258       -3.26811       -2.99539
C         -5.71911       -1.53081       -2.45106
H         -6.57438       -1.81768       -3.06759
C         -2.90343       -1.50656        2.25454
O         -3.87386       -0.60782        2.04781
C         -4.87775       -0.41258        2.99443
H         -5.51826        0.38420        2.59569
H         -5.48699       -1.32132        3.14765
H         -4.46805       -0.09051        3.96822
C         -0.94897       -2.62589        1.37220
O         -0.08041       -2.77526        0.36871
C          0.85613       -3.81406        0.40365
H          1.40281       -3.76182       -0.54317
H          0.36087       -4.79771        0.48802
H          1.57358       -3.68653        1.22892
C         -0.95021       -3.48303        2.48545
H         -0.20479       -4.27129        2.57233
C         -2.89425       -2.35051        3.37278
H         -3.66107       -2.26476        4.14140
C         -1.90823       -3.32398        3.47641
H         -1.89990       -3.99018        4.34310
C          3.77188       -1.63197        0.34896
C          4.43362       -0.84646        1.29690
H          3.94810        0.03921        1.70850
C          4.40579       -2.75516       -0.19168
H          3.87465       -3.33440       -0.94915
C          5.72004       -1.19856        1.70035
H          6.23317       -0.57803        2.43975
C          5.68776       -3.10014        0.22620
H          6.17442       -3.98017       -0.20209
C          6.35320       -2.32475        1.17610
H          7.36097       -2.59325        1.50059
C          3.85494        2.13818       -0.15850
O          3.58744        2.28259        1.15144
C          4.14989        3.33365        1.87994
H          3.71646        3.27279        2.88677
H          5.24820        3.24366        1.95012
H          3.90133        4.31647        1.44306
C          3.60807        0.83074       -2.16843
O          3.08730       -0.26939       -2.72763
C          3.24830       -0.51953       -4.09445
H          2.64398       -1.40805       -4.31447
H          4.30199       -0.72762       -4.34910
H          2.88836        0.32469       -4.70741
C          4.53007        1.64994       -2.83086
H          4.82164        1.44075       -3.85920
C          4.78399        2.95794       -0.81291
H          5.28016        3.76744       -0.27962
C          5.09557        2.71673       -2.14547
H          5.82033        3.35889       -2.65173
C          0.88120        2.00645        1.51328
O          0.94906        2.70146        0.36526
C          0.67598        4.07551        0.34825
H          0.85062        4.40887       -0.68222
H         -0.36818        4.28953        0.62161
H          1.35332        4.62522        1.02538
C          1.27768       -0.11932        2.58606
O          1.71350       -1.39165        2.49975
C          1.96826       -2.10655        3.67529
H          2.46053       -3.03930        3.37026
H          1.03842       -2.35515        4.21389
H          2.64689       -1.55119        4.34556
C          0.80251        0.41856        3.79192
H          0.74625       -0.20193        4.68468
C          0.43357        2.55465        2.71521
H          0.09647        3.58863        2.76222
C          0.39205        1.74353        3.84455
H          0.02473        2.15329        4.78870
