88
Cat425.ts34.5.log	Energy: -1976965.3298033
C         -1.58995       -2.59314       -2.86410
H         -1.63959       -3.65358       -2.60602
H         -2.56272       -2.12313       -3.03497
C         -0.45470       -2.11544       -3.57700
H          0.37982       -2.79032       -3.78385
H         -0.60484       -1.35768       -4.35324
H          0.01559       -0.75888       -2.74679
Rh        -0.36069       -1.58757       -1.40800
C         -2.26303        1.50326       -1.59552
O         -3.51272       -0.53340       -0.57159
O         -1.59355        0.50095        0.81436
C          1.84959       -1.11870        1.21963
O          2.87981       -0.78137       -1.31621
O          1.25596        0.99840       -0.39987
P          1.44423       -0.66144       -0.49324
P         -1.91379       -0.06630       -0.74276
C         -0.33890       -3.10926       -0.24660
O         -0.32463       -4.00585        0.46924
C         -1.20326        2.11668       -2.27169
H         -0.23830        1.60869       -2.33334
C         -3.49960        2.14917       -1.50479
H         -4.32095        1.65591       -0.98083
C         -1.38547        3.37756       -2.83209
H         -0.56087        3.86398       -3.35866
C         -3.69142        3.41870       -2.05774
C         -5.00730        4.12345       -1.89984
H         -5.85216        3.43726       -2.05985
H         -5.10867        4.53066       -0.88021
H         -5.10661        4.96128       -2.60425
C         -2.61644        4.02173       -2.72154
H         -2.74905        5.01406       -3.16181
C         -3.85747       -1.75520       -0.06655
C         -4.86463       -2.46658       -0.72008
H         -5.32218       -2.03225       -1.61071
C         -3.24918       -2.28609        1.07390
H         -2.46024       -1.72658        1.57880
C         -5.26720       -3.70799       -0.23812
H         -6.05246       -4.28325       -0.73174
C         -3.64159       -3.53470        1.55059
H         -3.16791       -3.97722        2.42828
C         -4.64560       -4.23042        0.89083
F         -5.02478       -5.42426        1.34859
C         -2.18378        1.61673        1.34197
C         -3.41477        1.52391        1.99198
H         -3.90862        0.55370        2.06855
C         -1.53435        2.84756        1.22790
H         -0.58116        2.89425        0.69883
C         -4.00424        2.66910        2.52308
H         -4.96735        2.62855        3.03508
C         -2.12027        3.99300        1.75689
H         -1.63918        4.96905        1.67338
C         -3.35155        3.88936        2.39453
F         -3.91954        4.98722        2.89562
C          2.65132       -2.22810        1.50856
H          3.15965       -2.77391        0.71121
C          1.16725       -0.46579        2.25196
H          0.48309        0.34854        2.00511
C          2.79295       -2.64163        2.83031
H          3.42142       -3.50449        3.06225
C          1.30090       -0.87524        3.58121
C          0.57842       -0.14973        4.67909
H         -0.29387        0.39568        4.29091
H          0.23222       -0.84242        5.46018
H          1.23865        0.58646        5.16751
C          2.13072       -1.96940        3.85496
H          2.24586       -2.31100        4.88746
C          4.17922       -0.92641       -0.90664
C          4.74928       -0.19802        0.13908
H          4.15573        0.52055        0.70271
C          4.95109       -1.84651       -1.61922
H          4.48179       -2.40347       -2.43193
C          6.08733       -0.39522        0.46991
H          6.55165        0.16288        1.28461
C          6.28989       -2.04108       -1.29424
H          6.91048       -2.75335       -1.84075
C          6.84336       -1.31228       -0.24826
F          8.12456       -1.49668        0.07037
C          2.25122        1.92034       -0.23514
C          3.04019        2.28884       -1.32737
H          2.87244        1.80463       -2.29023
C          2.44730        2.52291        1.00882
H          1.82030        2.23157        1.85155
C          4.04238        3.24033       -1.17171
H          4.68065        3.53597       -2.00604
C          3.44688        3.48069        1.16670
H          3.62235        3.96557        2.12860
C          4.23646        3.82303        0.07579
F          5.19690        4.73289        0.22720
