108
Cat434.ts34.5.log	Energy: -1736462.5943797
C          0.35249        2.97740        2.91611
H         -0.04336        2.98039        3.93505
H          1.44054        3.08163        2.85790
C         -0.44853        3.53333        1.87834
H         -1.46513        3.87188        2.09550
H          0.03140        4.12595        1.09145
H         -0.34864        2.41461        0.67446
Rh        -0.47673        1.31112        1.84913
C          1.78270        0.48277       -0.76751
C          3.03699        0.94878        1.83872
C          1.58412       -1.55567        1.33590
C         -2.16909       -1.39453        0.27327
C         -3.88209        0.66221        1.16665
C         -2.24083        1.07574       -1.21640
P         -2.13042        0.42884        0.52380
P          1.47408        0.29632        1.02820
C         -0.98479        0.42331        3.43296
O         -1.28697       -0.12160        4.40633
C          1.07858       -0.32507       -1.67369
H          0.41416       -1.10993       -1.30927
C          2.59707        1.49721       -1.28227
H          3.11115        2.17909       -0.60198
C          1.22831       -0.14003       -3.04402
H          0.67832       -0.78234       -3.73628
C          2.77633        1.68209       -2.65801
C          3.73510        2.71859       -3.16879
H          3.83289        3.56178       -2.46983
H          4.74115        2.28567       -3.30189
H          3.42187        3.11758       -4.14460
C          2.07857        0.84848       -3.53793
H          2.19910        0.97762       -4.61690
H          3.11689        2.00120        1.52662
H          2.75831        0.97612        2.90326
C          4.32598        0.21139        1.65312
C          4.68247       -0.81468        2.53984
H          4.04788       -1.02652        3.40456
C          5.19587        0.49257        0.59132
H          4.95550        1.30349       -0.09768
C          5.84053       -1.55928        2.33541
H          6.10012       -2.35992        3.03203
C          6.36375       -0.24316        0.37027
C          7.23795        0.05638       -0.81279
H          6.90432       -0.51260       -1.69670
H          7.20369        1.12279       -1.07954
H          8.28580       -0.21734       -0.62304
C          6.67276       -1.28437        1.25292
H          7.58080       -1.87359        1.09869
H          2.26048       -1.65082        2.19969
H          0.58524       -1.84342        1.68641
C          2.01217       -2.47636        0.22955
C          1.11160       -3.43356       -0.25374
H          0.12071       -3.51472        0.19570
C          3.27257       -2.38849       -0.36677
H          3.98318       -1.64194       -0.01124
C          1.46525       -4.26532       -1.31234
H          0.75032       -5.00702       -1.67876
C          3.64261       -3.21243       -1.43336
C          4.99193       -3.04881       -2.07163
H          5.78050       -2.94484       -1.31095
H          5.24349       -3.90183       -2.71791
H          5.01897       -2.13844       -2.69382
C          2.72203       -4.15458       -1.90390
H          2.99410       -4.80617       -2.73909
C         -2.07055       -2.20278        1.41641
H         -1.88786       -1.74878        2.39271
C         -2.39224       -2.00489       -0.96220
H         -2.49072       -1.39818       -1.86463
C         -2.23239       -3.58031        1.31605
H         -2.17036       -4.20049        2.21342
C         -2.52708       -3.39507       -1.08423
C         -2.73396       -4.01559       -2.43444
H         -3.49669       -3.47059       -3.01110
H         -1.80045       -3.99197       -3.02079
H         -3.05017       -5.06505       -2.35367
C         -2.46018       -4.17388        0.07349
H         -2.57737       -5.25857        0.00122
H         -3.84730        0.26110        2.19094
H         -4.01456        1.75040        1.26067
C         -4.96291        0.01783        0.35423
C         -5.64376        0.72021       -0.65078
H         -5.44394        1.78275       -0.80516
C         -5.27669       -1.33339        0.53965
H         -4.76286       -1.89353        1.32496
C         -6.58345        0.07773       -1.45180
H         -7.10797        0.63943       -2.22869
C         -6.20947       -1.99887       -0.26156
C         -6.48022       -3.45938       -0.04331
H         -5.55847       -4.04924       -0.17115
H         -6.84433       -3.64955        0.97876
H         -7.23260       -3.84186       -0.74721
C         -6.85907       -1.27572       -1.26655
H         -7.59301       -1.77606       -1.90419
H         -1.46377        0.54045       -1.78028
H         -3.22209        0.79289       -1.62979
C         -1.99764        2.55104       -1.32349
C         -2.96585        3.48993       -0.94607
H         -3.94507        3.15657       -0.59950
C         -0.75595        3.01713       -1.76585
H          0.00740        2.29257       -2.06021
C         -2.68904        4.85206       -1.00556
H         -3.45327        5.57477       -0.70938
C         -0.45941        4.38389       -1.82896
C          0.89620        4.84192       -2.28103
H          1.18807        4.35553       -3.22362
H          0.92788        5.93057       -2.42851
H          1.66550        4.57860       -1.53686
C         -1.44288        5.29835       -1.44143
H         -1.23115        6.37024       -1.48391
