56
Cat469.ts34.5.log	Energy: -1292145.9344968
C          0.56817       -3.92558       -0.63841
H          1.19800       -4.56769       -0.01757
H         -0.50030       -4.15674       -0.61388
C          1.12534       -3.36967       -1.82237
H          2.18404       -3.51903       -2.04966
H          0.49558       -3.29367       -2.71461
H          0.65382       -1.75159       -1.74812
Rh         0.98154       -1.86657       -0.17364
O         -1.62683        0.15185       -0.41747
O         -2.36226       -2.30206       -0.19014
O         -1.69202       -1.07145        1.82484
O          1.21756        1.24650        0.72895
O          3.42415        0.48812       -0.05175
O          1.61892        0.90015       -1.80412
P          1.83841        0.17981       -0.36485
P         -1.17067       -1.30002        0.28278
C          2.00645       -2.33220        1.36465
O          2.63198       -2.60597        2.28982
C         -2.90959        0.62363       -0.41986
C         -3.72221        0.37846       -1.52856
H         -3.31655       -0.20590       -2.35603
C         -3.39040        1.36897        0.65852
H         -2.73758        1.55441        1.51248
C         -5.02413        0.87188       -1.54940
H         -5.66063        0.67755       -2.41613
C         -4.69430        1.85943        0.62639
H         -5.07074        2.44183        1.47087
C         -5.51604        1.61077       -0.47262
H         -6.53784        1.99609       -0.49223
C         -3.59492       -2.50850        0.47966
H         -3.42822       -2.85333        1.51025
H         -4.20327       -1.59222        0.50436
H         -4.13195       -3.28222       -0.08553
C         -0.85622       -0.44320        2.77370
H          0.12208       -0.94564        2.83818
H         -0.68080        0.61438        2.52017
H         -1.36376       -0.50959        3.74535
C          1.19999        2.60920        0.58159
C          0.04398        3.21048        0.08390
H         -0.79419        2.57330       -0.20227
C          2.30635        3.37275        0.95177
H          3.19356        2.86496        1.33311
C          0.00288        4.59629       -0.05171
H         -0.89968        5.07138       -0.44368
C          2.25233        4.75812        0.81005
H          3.11626        5.36295        1.09638
C          1.10516        5.37315        0.30767
H          1.06915        6.45944        0.19908
C          4.41836       -0.37594       -0.56136
H          4.06235       -1.42069       -0.57176
H          4.70722       -0.08739       -1.58614
H          5.29675       -0.29846        0.09360
C          2.32029        2.02906       -2.29557
H          1.70219        2.93297       -2.19430
H          3.26646        2.18349       -1.75638
H          2.53183        1.85028       -3.35979
