74
Cat48.ts34.5.log	Energy: -1736511.4894406
C         -0.45128       -2.84018       -2.22791
H         -0.17250       -3.89595       -2.18586
H         -1.52177       -2.64012       -2.33008
C          0.46483       -1.91972       -2.80450
H          1.45820       -2.25592       -3.11332
H          0.06637       -1.10402       -3.41786
H          0.52706       -0.68553       -1.72128
Rh         0.47690       -1.81895       -0.56597
C         -2.25106       -1.48104        1.72301
O         -1.18340        0.76886        0.67852
O         -2.67571       -0.68643       -0.84525
C          2.93569       -1.32091        1.90515
O          3.54583       -0.75536       -0.74615
O          2.14499        0.85683        0.69641
P          2.24580       -0.75914        0.30566
P         -1.39804       -0.83182        0.23178
C          0.81288       -3.43011        0.37711
O          0.99487       -4.40140        0.96719
H         -2.62396       -2.48411        1.46006
C         -1.30408       -1.54788        2.91122
H         -0.88724       -0.55696        3.14911
H         -0.45950       -2.22189        2.70370
H         -3.13571       -0.85862        1.93541
H         -1.82359       -1.92344        3.80505
C         -2.16991        1.70476        0.76844
C         -2.79329        1.96771        1.98900
H         -2.49950        1.40147        2.87441
C         -2.51797        2.43974       -0.36789
H         -2.00967        2.22402       -1.30823
C         -3.77577        2.95316        2.07337
H         -4.27829        3.17760        3.01584
C         -3.49449        3.42692       -0.28922
H         -3.77861        4.01618       -1.16279
C         -4.11604        3.66886        0.93210
F         -5.05286        4.61318        1.01058
C         -3.96976       -1.08145       -0.63773
C         -4.94168       -0.15538       -0.25427
H         -4.65813        0.88526       -0.09543
C         -4.32247       -2.41561       -0.85485
H         -3.55256       -3.12708       -1.16100
C         -6.26185       -0.56427       -0.08342
H         -7.03869        0.14247        0.21373
C         -5.64028       -2.82913       -0.68142
H         -5.93809       -3.86633       -0.84484
C         -6.59566       -1.89631       -0.29578
F         -7.85833       -2.28788       -0.12799
H          3.44864       -2.26994        1.67287
C          3.81058       -0.38012        2.71950
H          3.29476        0.57177        2.90357
H          4.76152       -0.15557        2.21903
H          2.03524       -1.60311        2.47539
H          4.04297       -0.84012        3.69200
C          4.80750       -0.32614       -0.42587
C          5.79889       -1.27927       -0.18880
H          5.54227       -2.33798       -0.25855
C          5.11130        1.03537       -0.36780
H          4.33361        1.77288       -0.56971
C          7.09171       -0.87609        0.13359
H          7.88441       -1.60121        0.32593
C          6.40280        1.44227       -0.04452
H          6.66639        2.49986        0.01237
C          7.37620        0.48256        0.20792
F          8.61131        0.87310        0.51939
C          1.60975        1.83817       -0.08347
C          1.01432        2.91593        0.57541
H          0.97159        2.90384        1.66523
C          1.67002        1.81716       -1.47859
H          2.16471        0.99225       -1.99308
C          0.46540        3.96394       -0.15140
H         -0.01935        4.80680        0.34395
C          1.10816        2.86393       -2.21099
H          1.13921        2.86852       -3.30203
C          0.51024        3.92124       -1.54116
F         -0.03759        4.91640       -2.24194
