80
Cat476.ts34.5.log	Energy: -2737600.7108396
C         -1.49255       -2.91817       -1.94867
H         -1.40798       -3.91267       -1.50390
H         -2.51715       -2.60431       -2.16926
C         -0.42652       -2.44560       -2.75726
H          0.47650       -3.04956       -2.88335
H         -0.66923       -1.84908       -3.64390
H         -0.01550       -0.94746       -2.17457
Rh        -0.38718       -1.53369       -0.71021
O         -2.71100        1.04081       -1.55728
C         -3.77904       -0.98051       -0.33429
C         -2.31797        0.92247        1.10821
O          1.54766       -0.31563        1.62074
C          3.09618       -1.43893       -0.33145
C          1.90134        1.14352       -0.65911
P          1.52848       -0.53748       -0.05169
P         -2.18242       -0.09000       -0.41714
C         -0.38188       -2.71337        0.77120
O         -0.36944       -3.41406        1.68319
C         -1.90280        1.96838       -2.14986
C         -1.00190        1.60051       -3.15110
H         -0.91000        0.54880       -3.42135
C         -2.05129        3.31247       -1.80024
H         -2.76058        3.58011       -1.01575
C         -0.25526        2.58017       -3.80086
H          0.44982        2.28766       -4.58240
C         -1.31051        4.28564       -2.46701
H         -1.43478        5.33731       -2.19746
C         -0.41075        3.92481       -3.46855
H          0.17891        4.68919       -3.97757
C         -4.79009       -0.80505       -1.28217
H         -4.65758       -0.07213       -2.07965
C         -3.95669       -1.92166        0.68792
H         -3.16900       -2.07878        1.42998
C         -5.96476       -1.55346       -1.21077
H         -6.75717       -1.42106       -1.94935
C         -5.12606       -2.66600        0.77325
H         -5.26962       -3.39489        1.57233
C         -6.12644       -2.47823       -0.18300
Cl        -7.58288       -3.41071       -0.08849
C         -1.39566        0.75475        2.14265
H         -0.58177        0.03353        2.03710
C         -3.34955        1.85999        1.25384
H         -4.08532        1.98119        0.45477
C         -1.48680        1.51791        3.30622
H         -0.76369        1.39177        4.11371
C         -3.44712        2.63160        2.40470
H         -4.24568        3.36558        2.52537
C         -2.50882        2.45615        3.42577
Cl        -2.62350        3.42055        4.85829
C          2.66784       -0.08560        2.37378
C          3.13059        1.21452        2.58285
H          2.60167        2.05340        2.12950
C          3.32224       -1.17327        2.95419
H          2.93347       -2.17760        2.77575
C          4.26730        1.41779        3.36418
H          4.63097        2.43505        3.52784
C          4.45514       -0.95846        3.73394
H          4.96881       -1.81108        4.18417
C          4.93512        0.33578        3.93659
H          5.82560        0.50154        4.54685
C          3.02086       -2.77965       -0.72247
H          2.03226       -3.21557       -0.89688
C          4.35831       -0.87265       -0.09198
H          4.44602        0.16823        0.22576
C          4.17124       -3.54762       -0.87808
H          4.11296       -4.59337       -1.18363
C          5.51493       -1.62809       -0.24226
H          6.49629       -1.19244       -0.04919
C          5.41331       -2.96369       -0.63533
Cl         6.85092       -3.90596       -0.82230
C          1.17064        2.21331       -0.12432
H          0.43106        2.03230        0.65954
C          2.80692        1.39238       -1.69493
H          3.36621        0.57027       -2.14665
C          1.37761        3.51068       -0.57382
H          0.81214        4.34336       -0.15476
C          3.01517        2.68836       -2.16130
H          3.72511        2.88643       -2.96576
C          2.30813        3.74069       -1.58675
Cl         2.56426        5.35506       -2.15637
