114
Cat438.ts34.5.log	Energy: -1690701.3587099
C         -0.82063       -0.64264        3.28183
H         -1.18485       -1.62369        3.59921
H          0.12699       -0.33871        3.73679
C         -1.78471        0.35950        2.96514
H         -2.84837        0.10552        2.97179
H         -1.59248        1.39099        3.27944
H         -1.26689        0.99382        1.52993
Rh        -0.85586       -0.53092        1.14871
C          1.91897        1.84339        0.78774
C          2.56365       -0.58319        2.14257
C          2.11321       -0.76322       -0.65450
C         -1.59358       -1.37601       -2.17885
C         -3.58110        0.37433       -1.04586
C         -1.06232        1.50561       -1.69311
P         -1.75566       -0.02671       -0.92547
P          1.40426        0.06089        0.84068
C         -0.95220       -2.39370        0.93399
O         -0.97333       -3.54255        0.79468
C          2.37482        2.56047       -0.33751
O          2.46874        1.88531       -1.50722
C          3.03050        2.51291       -2.62292
H          3.08140        1.75390       -3.41376
H          2.41299        3.35694       -2.97708
H          4.05206        2.87725       -2.41817
C          1.71715        2.59289        1.97145
O          1.19670        1.91375        3.01626
C          0.90734        2.58392        4.21027
H          0.45846        1.84010        4.88079
H          0.18590        3.40417        4.05215
H          1.81729        2.99300        4.68279
C          2.02616        3.95428        2.05505
H          1.87864        4.50382        2.98338
C          2.69427        3.92359       -0.26152
H          3.06139        4.45650       -1.13712
C          2.52606        4.60658        0.93458
H          2.77218        5.66927        0.98968
H          3.59454       -0.29103        1.88267
H          2.31101       -0.06153        3.07543
C          2.44988       -2.08658        2.34063
H          1.39412       -2.34228        2.52894
H          2.72439       -2.61965        1.41358
C          3.31336       -2.60241        3.48327
H          3.03480       -2.07593        4.41474
H          4.37126       -2.33950        3.29753
C          3.19614       -4.10474        3.69918
H          2.13670       -4.36036        3.87680
H          3.47294       -4.62593        2.76555
C          4.04919       -4.62107        4.84652
H          3.94295       -5.70891        4.97681
H          3.76823       -4.14343        5.79923
H          5.11756       -4.40918        4.67751
H          1.71325       -1.78859       -0.57641
H          1.61133       -0.32508       -1.52698
C          3.62286       -0.79014       -0.83966
H          4.04426        0.21374       -0.66946
H          4.08311       -1.44755       -0.08241
C          4.02758       -1.27321       -2.22519
H          3.58749       -0.59749       -2.98094
H          3.57523       -2.26405       -2.41532
C          5.53201       -1.35114       -2.43949
H          5.97695       -0.36105       -2.23381
H          5.96938       -2.03360       -1.68955
C          5.92076       -1.80814       -3.83626
H          7.01308       -1.85515       -3.96317
H          5.52688       -1.12285       -4.60487
H          5.51740       -2.81019       -4.05465
C         -0.67460       -1.42311       -3.24478
O          0.08019       -0.32199       -3.46089
C          0.91531       -0.26801       -4.57999
H          1.34821        0.74050       -4.59416
H          1.73365       -1.00657       -4.52304
H          0.35449       -0.42600       -5.51756
C         -2.37710       -2.52934       -1.95258
O         -3.25210       -2.44294       -0.93282
C         -3.93481       -3.58486       -0.49365
H         -4.51162       -3.27637        0.38754
H         -3.23053       -4.37988       -0.20025
H         -4.63015       -3.96555       -1.26177
C         -2.24974       -3.67818       -2.73958
H         -2.85698       -4.55966       -2.53966
C         -0.54489       -2.56784       -4.04231
H          0.17253       -2.59479       -4.86092
C         -1.32968       -3.68365       -3.77910
H         -1.21958       -4.57683       -4.39838
H         -3.66834        1.36620       -1.51898
H         -4.03575       -0.34735       -1.73806
C         -4.30399        0.34876        0.28787
H         -4.06296       -0.59991        0.79628
H         -3.89659        1.13956        0.94111
C         -5.81103        0.51092        0.16248
H         -6.21044       -0.29068       -0.48632
H         -6.04368        1.45803       -0.35891
C         -6.53396        0.48228        1.50210
H         -6.29324       -0.46366        2.01939
H         -6.12911        1.28241        2.14707
C         -8.04194        0.63317        1.38414
H         -8.53373        0.60748        2.36862
H         -8.47750       -0.17454        0.77370
H         -8.31123        1.58732        0.90275
H          0.01502        1.35571       -1.83672
H         -1.50747        1.63827       -2.69287
C         -1.28986        2.73175       -0.82080
H         -2.36098        2.85567       -0.58075
H         -0.78046        2.57575        0.14451
C         -0.77131        4.01021       -1.46342
H         -1.33315        4.21757       -2.39295
H          0.27722        3.85393       -1.77146
C         -0.83785        5.21774       -0.54043
H         -1.88727        5.39189       -0.24258
H         -0.29281        4.97906        0.38892
C         -0.25984        6.48051       -1.15700
H         -0.32151        7.33751       -0.46870
H         -0.79123        6.75812       -2.08199
H          0.80205        6.33957       -1.41695
