70
Cat40.ts34.5.log	Energy: -1547770.6689450
C          0.51568       -3.48409        0.94936
H          0.52373       -4.26727        0.18641
H          1.41247       -3.45575        1.57588
C         -0.73891       -3.13036        1.52994
H         -1.66045       -3.58717        1.15791
H         -0.77698       -2.93706        2.60841
H         -0.77646       -1.50757        1.48720
Rh        -0.06591       -1.63377        0.02640
C          1.85353        0.23003        2.49040
C          3.39563       -0.78653        0.32938
C          1.72076        1.42837       -0.11445
C         -1.82522        0.25175       -2.42188
C         -3.40073       -0.74137       -0.24827
C         -1.65858        1.48003        0.20707
P         -1.69957       -0.15594       -0.62148
P          1.68216       -0.21625        0.70323
C          0.28382       -2.23905       -1.72172
O          0.49388       -2.57217       -2.80679
H          0.95174        0.80834        2.75042
C          1.97384       -1.00236        3.37113
H          2.85567       -1.60348        3.09988
H          1.08694       -1.64531        3.27487
H          2.72316        0.89320        2.63156
H          2.07401       -0.72136        4.43036
C          4.50412        0.04635        0.53806
H          4.36088        1.06630        0.90563
C          3.60566       -2.07174       -0.17764
H          2.73972       -2.71271       -0.35794
C          5.79291       -0.39525        0.26118
H          6.66537        0.24296        0.41304
C          4.89118       -2.53039       -0.46057
H          5.06863       -3.53093       -0.85896
C          5.96805       -1.68452       -0.23361
F          7.20000       -2.11104       -0.50162
C          1.65951        1.44462       -1.51614
H          1.59660        0.49581       -2.05704
C          1.79059        2.64842        0.56497
H          1.82754        2.67706        1.65485
C          1.67258        2.64102       -2.22337
H          1.63153        2.66410       -3.31412
C          1.79571        3.85744       -0.13017
H          1.83323        4.81501        0.39247
C          1.73518        3.83773       -1.51527
F          1.72197        4.99040       -2.18449
H         -1.63980       -0.70338       -2.93671
C         -3.12210        0.87442       -2.91307
H         -3.37893        1.79859       -2.37463
H         -3.96542        0.18052       -2.78575
H         -0.94698        0.88027       -2.64583
H         -3.04858        1.12024       -3.98381
C         -4.42691        0.09872        0.19959
H         -4.22668        1.15725        0.38007
C         -3.68381       -2.09473       -0.47394
H         -2.87525       -2.75253       -0.80718
C         -5.70801       -0.39960        0.42482
H         -6.51711        0.24046        0.78149
C         -4.96260       -2.60288       -0.26841
H         -5.19823       -3.65442       -0.44220
C         -5.95898       -1.74503        0.18454
F         -7.18151       -2.22539        0.39774
C         -1.66288        1.50019        1.60965
H         -1.72468        0.55666        2.15897
C         -1.55047        2.69553       -0.47578
H         -1.51702        2.71993       -1.56519
C         -1.57664        2.69607        2.31341
H         -1.58179        2.72180        3.40473
C         -1.45639        3.90217        0.21475
H         -1.35458        4.85225       -0.31232
C         -1.47070        3.88669        1.60141
F         -1.36502        5.03474        2.26784
