66
Cat436.ts34.5.log	Energy: -1296306.2734247
C         -2.08408       -1.68502       -1.77447
H         -1.99739       -2.70933       -2.14656
H         -2.91201       -1.51844       -1.07846
C         -1.67781       -0.62225       -2.62752
H         -1.24802       -0.84299       -3.60840
H         -2.25585        0.30870       -2.60193
H         -0.63043        0.32587       -1.69282
Rh        -0.14950       -1.08319       -1.05898
C         -2.58163        0.65374        0.71486
C         -1.28922       -1.54773        2.22620
C         -0.05695        0.93180        2.05279
C          2.78255        0.40193        0.15520
C          3.24632       -1.35577       -2.06481
C          2.05775        1.09193       -2.63076
P          1.95665       -0.24076       -1.37182
P         -0.98464       -0.23777        0.97167
C          0.47806       -2.83094       -0.78126
O          0.90361       -3.88739       -0.57448
C         -2.52422        1.91414        0.08074
O         -1.28466        2.40092       -0.14415
C         -1.10677        3.50072       -0.98694
H         -0.02270        3.61255       -1.11534
H         -1.57045        3.33538       -1.97501
H         -1.51567        4.42946       -0.55093
C         -3.85999        0.08876        0.89666
O         -3.90374       -1.15260        1.42730
C         -5.13260       -1.80242        1.57437
H         -4.91201       -2.79339        1.99179
H         -5.64789       -1.93005        0.60630
H         -5.80372       -1.26582        2.26800
C         -5.02277        0.77499        0.52058
H         -6.00466        0.33184        0.68015
C         -3.67808        2.60440       -0.30491
H         -3.61005        3.58184       -0.78113
C         -4.92083        2.02747       -0.07164
H         -5.82810        2.56047       -0.36511
H         -1.82880       -2.38542        1.77263
H         -0.28617       -1.89562        2.51898
H         -1.83022       -1.18960        3.11367
H         -0.66650        1.23577        2.91764
H          0.84954        0.42088        2.40832
H          0.24060        1.81657        1.48209
C          2.94847        1.75861        0.49090
O          2.54715        2.67367       -0.42137
C          2.75792        4.03336       -0.17183
H          2.40993        4.57189       -1.06333
H          2.18527        4.38679        0.70361
H          3.82632        4.26278       -0.01494
C          3.12258       -0.55237        1.13954
O          2.89259       -1.83686        0.81226
C          3.00881       -2.84487        1.77833
H          2.64732       -3.76401        1.30188
H          2.38374       -2.62970        2.66213
H          4.05497       -2.98238        2.10250
C          3.64621       -0.17814        2.38237
H          3.91322       -0.93002        3.12363
C          3.47721        2.14283        1.73101
H          3.60690        3.19508        1.97878
C          3.82290        1.17154        2.66142
H          4.23262        1.47396        3.62789
H          3.33323       -2.25777       -1.44998
H          2.91575       -1.64388       -3.07332
H          4.22214       -0.84945       -2.12499
H          3.06672        1.51806       -2.71981
H          1.76825        0.61394       -3.57873
H          1.33872        1.88527       -2.40432
