110
Cat455.ts34.5.log	Energy: -2064560.3487501
C         -0.79628        1.76921       -3.12533
H         -0.42788        1.39040       -4.08192
H         -1.88429        1.77790       -3.02403
C         -0.01850        2.72384       -2.42969
H          0.94952        3.04207       -2.82266
H         -0.53503        3.49178       -1.84391
H          0.19572        2.09687       -0.81988
Rh         0.23293        0.66974       -1.55935
C         -2.77381        1.81290       -0.37542
O         -2.92581       -0.75505       -0.87650
O         -1.62416       -0.20147        1.19361
C          1.68382       -1.14786        1.08509
O          3.27951       -0.27902       -0.97132
O          2.56817        1.30604        0.86337
P          1.90527        0.17249       -0.15949
P         -1.72957        0.29030       -0.39936
C          0.77766       -0.66505       -2.79568
O          1.12926       -1.46991       -3.53913
C         -2.28678        2.87532        0.41614
O         -1.24917        2.57115        1.21708
C         -0.44447        3.59705        1.73562
H         -0.96598        4.16989        2.52190
H          0.43448        3.10524        2.16482
H         -0.10784        4.28646        0.94354
C         -3.83475        2.09365       -1.26539
O         -4.22204        1.12119       -2.10778
C         -5.22319        1.37337       -3.05244
H         -5.34036        0.44716       -3.62895
H         -4.94269        2.19076       -3.73968
H         -6.18708        1.62061       -2.57472
C         -4.42260        3.36794       -1.29140
H         -5.25297        3.57750       -1.96357
C         -2.85705        4.15112        0.37747
H         -2.47226        4.95192        1.00756
C         -3.93293        4.37675       -0.47239
H         -4.39558        5.36594       -0.50568
C         -2.84281       -2.09721       -1.08879
C         -1.66597       -2.75970       -1.43234
H         -0.73623       -2.19887       -1.51523
C         -4.05475       -2.79381       -0.93162
C         -5.28419       -2.04648       -0.51795
H         -5.16375       -1.63626        0.49826
H         -5.46085       -1.18461       -1.17807
H         -6.16767       -2.69954       -0.52821
C         -1.68881       -4.13842       -1.63681
H         -0.76545       -4.65240       -1.91414
C         -4.04423       -4.17389       -1.13953
H         -4.97870       -4.72880       -1.01710
C         -2.87541       -4.85131       -1.49157
H         -2.89562       -5.93175       -1.65073
C         -2.69312       -0.57311        1.96968
C         -3.59964        0.38980        2.42378
H         -3.45005        1.42994        2.14136
C         -2.82463       -1.92096        2.34532
C         -1.84844       -2.97208        1.91525
H         -2.32244       -3.69347        1.23202
H         -0.98559       -2.53664        1.40077
H         -1.47758       -3.53148        2.78687
C         -4.67227        0.01954        3.22759
H         -5.37776        0.77977        3.57108
C         -3.91229       -2.26160        3.16054
H         -4.02948       -3.30834        3.45556
C         -4.83562       -1.31585        3.59403
H         -5.67531       -1.61808        4.22407
C          1.25123       -0.90916        2.40607
O          0.90781        0.34577        2.74144
C          0.11759        0.54396        3.88474
H         -0.23214        1.58240        3.84422
H         -0.76028       -0.12153        3.88518
H          0.69456        0.39731        4.81432
C          1.84983       -2.48587        0.67128
O          2.05384       -2.66856       -0.64474
C          2.33784       -3.94977       -1.13813
H          2.42237       -3.84599       -2.22647
H          1.52606       -4.66008       -0.90789
H          3.29042       -4.33057       -0.73314
C          1.78850       -3.54006        1.58784
H          1.96850       -4.56590        1.27171
C          1.17713       -1.96644        3.32285
H          0.87741       -1.78059        4.35292
C          1.47534       -3.25892        2.91174
H          1.42824       -4.07534        3.63620
C          4.37478       -0.94679       -0.49883
C          4.78320       -0.90099        0.83416
H          4.22840       -0.29361        1.54838
C          5.09205       -1.68514       -1.45632
C          4.65982       -1.66763       -2.88925
H          3.59410       -1.91489       -2.99251
H          4.77762       -0.66059       -3.32098
H          5.25344       -2.37029       -3.49015
C          5.90170       -1.62945        1.23660
H          6.21406       -1.59599        2.28294
C          6.20953       -2.40144       -1.02256
H          6.77471       -2.98310       -1.75637
C          6.61434       -2.38726        0.31246
H          7.49059       -2.95974        0.62483
C          2.90880        2.58143        0.52419
C          3.07149        2.99678       -0.79881
H          2.94398        2.27517       -1.60632
C          3.12453        3.46838        1.59413
C          3.05562        2.97691        3.00848
H          2.82274        3.79530        3.70472
H          2.31477        2.17361        3.11232
H          4.02499        2.54749        3.31407
C          3.39330        4.32469       -1.07172
H          3.51414        4.64474       -2.10943
C          3.44467        4.79322        1.28782
H          3.60567        5.49525        2.11104
C          3.56822        5.23168       -0.02991
H          3.81720        6.27423       -0.23972
