90
Cat439.ts34.5.log	Energy: -1493489.3735980
C          0.86650       -3.43492       -0.12437
H          0.18386       -4.16251       -0.57198
H          1.86529       -3.42030       -0.57066
C          0.73253       -3.16159        1.27059
H         -0.08508       -3.62387        1.83208
H          1.64268       -3.04412        1.86909
H          0.76944       -1.53517        1.37557
Rh        -0.10321       -1.53941        0.00560
C          2.84100        0.52773        0.11078
C          2.62655       -1.15153       -2.25948
C          0.86564        1.26370       -2.00282
C         -2.80743        0.67343        0.01191
C         -2.48005       -0.86081        2.50746
C         -0.62318        1.42034        1.91030
P         -1.49347       -0.04373        1.12254
P          1.55961       -0.18950       -1.03801
C         -1.36197       -2.04440       -1.29049
O         -2.09736       -2.38325       -2.11775
C          2.95011        1.86752        0.54357
O          2.07305        2.76562        0.03739
C          2.20112        4.11907        0.35634
H          1.44583        4.65071       -0.23670
H          2.01381        4.31189        1.42745
H          3.19686        4.51392        0.09019
C          3.70217       -0.39748        0.75174
O          3.54096       -1.69256        0.40604
C          4.36325       -2.67569        0.96622
H          4.03174       -3.63310        0.54438
H          4.26156       -2.71833        2.06453
H          5.42520       -2.51585        0.71083
C          4.66000       -0.00937        1.69304
H          5.31860       -0.74496        2.15174
C          3.90918        2.26653        1.48534
H          3.98056        3.30858        1.79183
C          4.76189        1.32917        2.04746
H          5.50764        1.64323        2.78101
H          2.83542       -2.05885       -1.67844
C          1.81655       -1.58497       -3.47509
H          2.36079       -2.37309       -4.02060
H          0.83749       -1.99298       -3.18257
H          1.65118       -0.75812       -4.18169
C          3.97045       -0.54866       -2.64845
H          4.55456       -0.23654       -1.77098
H          4.56693       -1.29777       -3.19664
H          3.86336        0.32530       -3.30524
H          0.51241        1.90585       -1.18682
C          1.85303        2.05704       -2.84993
H          1.39838        3.01454       -3.15755
H          2.78206        2.28680       -2.31155
H          2.11469        1.51797       -3.77291
C         -0.37312        0.88415       -2.80822
H         -1.10424        0.34790       -2.19166
H         -0.85707        1.80116       -3.18330
H         -0.14354        0.25821       -3.68099
C         -2.75168        1.93826       -0.61461
O         -1.71101        2.74350       -0.30522
C         -1.63161        4.02447       -0.85587
H         -0.74330        4.49416       -0.41547
H         -1.51276        3.99555       -1.95300
H         -2.51554        4.63642       -0.60582
C         -3.85201       -0.18446       -0.41164
O         -3.86936       -1.41282        0.13568
C         -4.75780       -2.38577       -0.33862
H         -4.52569       -3.30619        0.21209
H         -4.61005       -2.56865       -1.41512
H         -5.80881       -2.10862       -0.14621
C         -4.81234        0.21139       -1.34864
H         -5.60396       -0.47224       -1.65007
C         -3.71767        2.34626       -1.54351
H         -3.65857        3.33034       -2.00471
C         -4.74146        1.48140       -1.90099
H         -5.48822        1.79857       -2.63232
H         -2.77905       -1.79199        2.01013
C         -1.59521       -1.24441        3.68759
H         -2.11566       -1.99336        4.30649
H         -0.64158       -1.68366        3.36098
H         -1.37674       -0.38513        4.33811
C         -3.74316       -0.14406        2.96926
H         -4.38577        0.15387        2.13004
H         -4.33172       -0.81542        3.61700
H         -3.51706        0.75713        3.55596
H         -0.21648        1.92036        1.02245
C         -1.51849        2.40489        2.65393
H         -0.97523        3.34996        2.82352
H         -2.43843        2.64244        2.10300
H         -1.80260        2.01794        3.64412
C          0.57742        1.02198        2.76437
H          1.19338        0.25905        2.26930
H          1.21537        1.90573        2.92435
H          0.28868        0.64631        3.75460
