106
Cat496.ts34.5.log	Energy: -1547109.1230487
C         -0.38710       -3.54590       -2.21001
H         -0.10750       -4.53683       -1.84288
H         -1.45203       -3.43856       -2.43895
C          0.55721       -2.83348       -3.01198
H          1.55692       -3.24851       -3.16734
H          0.19001       -2.27867       -3.88217
H          0.53005       -1.30455       -2.37349
Rh         0.45559       -2.04905       -0.93336
O         -1.27911        0.78650       -0.67649
C         -3.05782       -1.27561       -1.21377
C         -1.91454       -0.86625        1.40581
O          1.33552        0.13412        1.31407
C          3.59562       -0.95197        0.26653
C          2.07939        1.01460       -1.22827
P          1.87937       -0.47228       -0.16866
P         -1.45904       -0.88604       -0.37422
C          1.00234       -3.30078        0.37782
O          1.34736       -4.03644        1.19697
C         -2.30284        1.68467       -0.69556
C         -2.73673        2.31327        0.47396
H         -2.24463        2.08466        1.42069
C         -2.90763        2.01076       -1.91292
H         -2.53597        1.54244       -2.82638
C         -3.80051        3.21225        0.42506
H         -4.13657        3.68894        1.35013
C         -3.97013        2.90691       -1.94566
H         -4.44090        3.14198       -2.90459
C         -4.44936        3.51404       -0.77686
C         -5.62612        4.44548       -0.81901
H         -5.56004        5.14180       -1.66867
H         -5.70310        5.03984        0.10237
H         -6.57008        3.88631       -0.93121
H         -2.94209       -0.88924       -2.24147
H         -3.05136       -2.37385       -1.31915
C         -4.37576       -0.81030       -0.60286
H         -4.57751       -1.38334        0.31813
H         -4.31049        0.24341       -0.29359
C         -5.55156       -0.95570       -1.55848
H         -5.66420       -2.01356       -1.85913
H         -5.32633       -0.40043       -2.48749
C         -6.86203       -0.44313       -0.97805
H         -7.08567       -0.99131       -0.04562
H         -6.72774        0.61195       -0.67911
C         -8.03626       -0.56013       -1.93604
H         -8.96690       -0.17865       -1.48900
H         -8.21283       -1.60829       -2.22681
H         -7.85382        0.00970       -2.86159
H         -1.04780       -0.40300        1.90483
H         -2.79195       -0.22063        1.57117
C         -2.15447       -2.26366        1.96022
H         -3.02118       -2.72986        1.45769
H         -1.28762       -2.89939        1.71724
C         -2.38215       -2.27498        3.46521
H         -3.25936       -1.64947        3.71351
H         -1.52024       -1.79385        3.96188
C         -2.57658       -3.67338        4.03409
H         -3.43325       -4.15405        3.52869
H         -1.69622       -4.28874        3.77812
C         -2.79499       -3.68935        5.53827
H         -2.93029       -4.71297        5.91947
H         -3.68873       -3.10879        5.81930
H         -1.93697       -3.24746        6.07014
C          1.66036        1.35796        1.82096
C          0.90630        2.47743        1.46056
H          0.06682        2.34409        0.77750
C          2.72156        1.49715        2.71522
H          3.28327        0.61112        3.01715
C          1.25268        3.73136        1.95109
H          0.66199        4.60140        1.64991
C          3.05502        2.76071        3.19976
H          3.89494        2.86146        3.89282
C          2.34200        3.90213        2.81636
C          2.73336        5.26849        3.30039
H          3.23749        5.84127        2.50400
H          3.42379        5.21215        4.15376
H          1.85465        5.85345        3.61179
H          4.13225       -0.08157        0.67907
H          3.49775       -1.69430        1.07625
C          4.34089       -1.55432       -0.91662
H          3.72924       -2.37110       -1.33840
H          4.43811       -0.80314       -1.72103
C          5.72260       -2.07809       -0.55161
H          5.62326       -2.83194        0.25026
H          6.32622       -1.25876       -0.11984
C          6.46807       -2.68876       -1.73003
H          5.85713       -3.50260       -2.15887
H          6.56062       -1.93281       -2.53017
C          7.84507       -3.21902       -1.36501
H          8.35820       -3.65354       -2.23630
H          7.77901       -4.00267       -0.59316
H          8.48855       -2.41871       -0.96504
H          2.16946        0.60711       -2.24860
H          1.08640        1.49360       -1.20260
C          3.20249        2.00351       -0.93242
H          3.30374        2.16872        0.15043
H          4.16686        1.58078       -1.26346
C          2.98008        3.35487       -1.59690
H          1.98954        3.73822       -1.29208
H          2.93214        3.23267       -2.69449
C          4.04322        4.38224       -1.23606
H          4.07682        4.48235       -0.13627
H          5.03639        4.00025       -1.53242
C          3.80714        5.74434       -1.86784
H          4.58831        6.46635       -1.58493
H          2.83695        6.16413       -1.55617
H          3.79711        5.67973       -2.96790
