110
Cat462.ts34.5.log	Energy: -2064562.1427997
C         -0.43577       -2.39596       -2.72486
H         -0.06567       -3.42161       -2.64768
H         -1.51314       -2.31042       -2.89640
C          0.43510       -1.40317       -3.25476
H          1.46782       -1.66276       -3.50311
H          0.00857       -0.62598       -3.89885
H          0.31770       -0.13970       -2.16354
Rh         0.30077       -1.28441       -1.03181
C         -2.75134        0.20215       -1.85398
O         -2.88271       -1.43536        0.24300
O         -1.77483        0.82420        0.61587
C          1.35735        0.72601        1.66625
O          3.27682       -0.54556        0.43307
O          2.19488        1.33213       -0.92802
P          1.76903        0.04098        0.01953
P         -1.73548       -0.44655       -0.46741
C          0.78306       -2.87948       -0.10737
O          1.07718       -3.85785        0.42028
C         -2.34953        1.45144       -2.37506
O         -1.29330        2.00820       -1.76471
C         -0.81356        3.26330       -2.15134
H          0.05786        3.45487       -1.51426
H         -0.49828        3.27003       -3.20929
H         -1.57092        4.04959       -1.98962
C         -3.77054       -0.49955       -2.52834
O         -4.04626       -1.74506       -2.10458
C         -5.08909       -2.46600       -2.69390
H         -5.14054       -3.42425       -2.16165
H         -4.90348       -2.66109       -3.76491
H         -6.05780       -1.94720       -2.58818
C         -4.43952        0.08881       -3.61207
H         -5.24463       -0.44056       -4.11936
C         -3.01302        2.04155       -3.45522
H         -2.71451        3.02125       -3.82572
C         -4.06291        1.35282       -4.05091
H         -4.59269        1.80552       -4.89252
C         -2.55143       -2.23266        1.30011
C         -2.46852       -1.68974        2.58295
H         -2.61953       -0.61605        2.71127
C         -2.33794       -3.59379        1.08784
H         -2.38673       -3.98279        0.06977
C         -2.20226       -2.50947        3.68378
C         -2.16655       -1.92770        5.06808
H         -1.80373       -0.88973        5.05441
H         -3.17413       -1.91741        5.51637
H         -1.51943       -2.51366        5.73786
C         -2.05729       -4.41074        2.17929
H         -1.87764       -5.47707        2.02337
C         -1.99650       -3.87783        3.46593
H         -1.78033       -4.53194        4.31518
C         -2.79164        1.71828        0.77772
C         -4.13630        1.34941        0.73488
H         -4.39750        0.30412        0.56273
C         -2.43235        3.04992        1.00167
H         -1.37225        3.29797        1.01127
C         -5.14060        2.31105        0.90180
C         -6.58221        1.89919        0.81719
H         -6.80170        1.06799        1.50531
H         -7.25652        2.73185        1.06196
H         -6.83031        1.55063       -0.19861
C         -3.42760        4.00263        1.18154
H         -3.15232        5.04580        1.35830
C         -4.77467        3.64026        1.12908
H         -5.55043        4.39827        1.26465
C          0.98811        2.05427        1.94332
O          1.00602        2.94145        0.92667
C          1.19540        4.30307        1.21392
H          1.46403        4.78633        0.26545
H          0.27934        4.77359        1.61225
H          2.02042        4.44770        1.93020
C          1.26757       -0.22319        2.71003
O          1.58611       -1.48367        2.38354
C          1.49801       -2.50567        3.34155
H          1.77070       -3.43146        2.82209
H          0.47018       -2.60811        3.72293
H          2.19499       -2.33066        4.17907
C          0.87137        0.15317        3.99733
H          0.81350       -0.58294        4.79734
C          0.60182        2.43463        3.23449
H          0.32061        3.46620        3.44219
C          0.54744        1.48252        4.24349
H          0.23540        1.78192        5.24695
C          3.89003       -1.53595       -0.27890
C          4.00727       -1.46671       -1.66655
H          3.59721       -0.60090       -2.19097
C          4.41384       -2.61721        0.42706
H          4.29643       -2.64387        1.51114
C          4.64400       -2.49011       -2.37573
C          4.72340       -2.43312       -3.87425
H          3.78895       -2.80089       -4.33097
H          4.87569       -1.40357       -4.23061
H          5.54348       -3.05547       -4.25992
C          5.06128       -3.62969       -0.27383
H          5.47843       -4.48113        0.26939
C          5.17298       -3.57131       -1.66244
H          5.67933       -4.37602       -2.20188
C          3.11204        2.31658       -0.71825
C          3.97544        2.36612        0.37581
H          3.95817        1.56614        1.11600
C          3.14728        3.32399       -1.68777
H          2.47073        3.25230       -2.54101
C          4.86295        3.43828        0.52843
C          5.78694        3.47020        1.71190
H          5.24016        3.29120        2.65055
H          6.55376        2.68262        1.63230
H          6.30532        4.43572        1.79465
C          4.03233        4.38547       -1.53959
H          4.05935        5.17448       -2.29546
C          4.88194        4.45122       -0.43498
H          5.57203        5.29130       -0.32376
