84
Cat485.ts34.5.log	Energy: -2926349.5346349
C          0.96621       -4.44744       -0.83212
H          0.86710       -4.87396       -1.83307
H          1.99168       -4.40172       -0.45497
C         -0.11047       -4.60126        0.07916
H         -1.04242       -5.06705       -0.25137
H          0.11610       -4.77117        1.13697
H         -0.39131       -3.08001        0.67949
Rh        -0.04902       -2.54230       -0.80990
O          1.95912       -1.03519        1.51589
O          3.17759       -1.56208       -0.66095
O          1.46555        0.35617       -0.57462
O         -2.22089       -0.30718       -1.85614
O         -3.24651       -1.96466       -0.17545
O         -1.73426       -0.09703        0.64348
P         -1.81636       -1.23445       -0.55992
P          1.64899       -1.22697       -0.09952
C         -0.06410       -2.43198       -2.71858
O         -0.06357       -2.32547       -3.85926
C          2.10134        0.14544        2.20620
C          3.35851        0.53460        2.66519
H          4.22562       -0.09487        2.46436
C          0.97361        0.92640        2.45755
H          0.00420        0.58389        2.09514
C          3.48419        1.73508        3.36288
H          4.46937        2.04443        3.71972
C          1.11371        2.12945        3.14481
H          0.23172        2.74877        3.32464
C          2.36918        2.54047        3.59588
H          2.47702        3.48472        4.13408
C          4.36288       -1.42760        0.01451
C          4.69944       -2.34709        1.00906
H          4.00135       -3.14804        1.25712
C          5.24452       -0.39964       -0.31764
H          4.97888        0.30625       -1.10424
C          5.90548       -2.22550        1.69171
H          6.17395       -2.93296        2.47762
C          6.45340       -0.27659        0.36093
H          7.14670        0.52810        0.11178
C          6.77581       -1.18406        1.36909
Cl         8.27242       -1.02099        2.22596
C          2.39264        1.21131       -1.10590
C          2.80572        1.04448       -2.42842
H          2.40609        0.21491       -3.01409
C          2.86990        2.27572       -0.34219
H          2.52506        2.40085        0.68474
C          3.73073        1.92521       -2.98067
H          4.07049        1.80194       -4.01006
C          3.79198        3.15976       -0.89473
H          4.18088        3.99197       -0.30615
C          4.22639        2.97561       -2.20717
Cl         5.38729        4.06645       -2.88745
C         -3.47629       -0.07346       -2.36595
C         -4.06082        1.18149       -2.20722
H         -3.52390        1.96076       -1.66615
C         -4.13012       -1.08580       -3.06786
H         -3.64209       -2.05453       -3.18748
C         -5.32844        1.41214       -2.73793
H         -5.79027        2.39386       -2.61037
C         -5.39897       -0.84403       -3.58956
H         -5.91683       -1.63759       -4.13312
C         -6.00471        0.40191       -3.42164
H         -7.00000        0.58724       -3.83123
C         -4.18817       -1.53664        0.72611
C         -5.38859       -0.99115        0.27437
H         -5.56680       -0.88778       -0.79620
C         -3.94980       -1.68806        2.09253
H         -3.00554       -2.12077        2.42660
C         -6.34518       -0.57235        1.19474
H         -7.28548       -0.13656        0.85406
C         -4.90312       -1.26754        3.01454
H         -4.72523       -1.37128        4.08593
C         -6.09593       -0.70355        2.56040
Cl        -7.27910       -0.16495        3.70490
C         -2.08059        1.23070        0.56811
C         -3.20417        1.68967        1.25267
H         -3.82266        0.98747        1.81147
C         -1.26749        2.11595       -0.13986
H         -0.38260        1.73182       -0.64715
C         -3.53161        3.04218        1.20976
H         -4.41180        3.41460        1.73587
C         -1.59553        3.46700       -0.18640
H         -0.97105        4.16915       -0.74074
C         -2.73066        3.92377        0.48447
Cl        -3.14493        5.60468        0.42218
