104
Cat402.ts34.5.log	Energy: -1452743.2969364
C          0.47365        2.20799       -2.80116
H          0.28706        3.26820       -2.61073
H          1.48026        1.99226       -3.17673
C         -0.61870        1.40816       -3.25972
H         -1.61534        1.85219       -3.33472
H         -0.42788        0.66973       -4.04772
H         -0.57502        0.08384       -2.33168
Rh        -0.17215        1.08228       -1.10406
C          2.22790       -1.77857       -1.07788
C          3.39894        0.83542       -0.97194
C          1.97452       -0.16426        1.30573
C         -1.36755       -1.43544        1.10914
C         -2.72531        1.09461        1.29841
C         -3.24887       -0.57342       -0.95537
P         -1.83893        0.02009        0.08101
P          1.83323       -0.05846       -0.53374
C         -0.15964        2.55488        0.05793
O         -0.15157        3.42449        0.81942
C          2.33564       -2.82226       -0.14675
H          2.23080       -2.61776        0.91778
C          2.32594       -2.09150       -2.45412
C          2.20667       -1.04412       -3.52183
H          3.18522       -0.59249       -3.75358
H          1.53489       -0.23539       -3.20300
H          1.81847       -1.47550       -4.45548
C          2.54886       -4.13947       -0.54388
H          2.62811       -4.92580        0.21090
C          2.53453       -3.42156       -2.83488
H          2.60094       -3.65628       -3.90117
C          2.65071       -4.44439       -1.89777
H          2.81390       -5.47375       -2.22589
H          3.48938        0.82557       -2.06900
H          4.24943        0.25750       -0.57847
C          3.40529        2.27290       -0.47384
H          2.51838        2.78408       -0.88115
H          3.28373        2.29748        0.62444
C          4.65838        3.07120       -0.84140
H          4.78071        3.00788       -1.93967
C          4.47193        4.53915       -0.47507
H          3.58607        4.96734       -0.96913
H          5.34691        5.14205       -0.76414
H          4.33193        4.65505        0.61274
C          5.91869        2.50633       -0.19486
H          6.80623        3.09818       -0.46785
H          6.11078        1.46573       -0.49648
H          5.83280        2.52497        0.90508
H          1.22299       -0.90847        1.61455
H          1.57493        0.79680        1.66352
C          3.33375       -0.45900        1.93004
H          3.88551       -1.19681        1.32457
H          3.95329        0.45529        1.91934
C          3.24581       -0.98300        3.36635
H          2.66564       -1.92593        3.33359
C          4.63480       -1.30393        3.90416
H          5.16152       -2.02124        3.25531
H          4.58622       -1.73618        4.91583
H          5.25275       -0.39217        3.96172
C          2.50507       -0.02153        4.28889
H          2.47250       -0.40788        5.31961
H          1.46674        0.14078        3.96342
H          3.00677        0.96068        4.31711
C         -1.28194       -1.28921        2.50279
H         -1.57089       -0.34740        2.97037
C         -0.96249       -2.65751        0.52468
C         -0.99082       -2.89957       -0.95551
H         -0.66684       -2.00575       -1.51033
H         -2.00430       -3.16572       -1.29786
H         -0.31760       -3.72434       -1.22586
C         -0.81089       -2.31413        3.31780
H         -0.74599       -2.16401        4.39799
C         -0.50958       -3.68211        1.36547
H         -0.19432       -4.62432        0.90964
C         -0.42653       -3.52374        2.74514
H         -0.05848       -4.34123        3.36971
H         -1.95128        1.52496        1.95423
H         -3.38168        0.47604        1.92997
C         -3.50072        2.22008        0.62340
H         -2.90863        2.60266       -0.22631
H         -4.43779        1.82204        0.19323
C         -3.83973        3.39038        1.54865
H         -2.88075        3.78276        1.93489
C         -4.51618        4.50592        0.76132
H         -3.88564        4.84291       -0.07600
H         -4.72438        5.37895        1.39910
H         -5.47717        4.16432        0.34081
C         -4.69329        2.96184        2.73678
H         -4.93213        3.81949        3.38470
H         -4.18710        2.20931        3.36034
H         -5.64840        2.52653        2.39599
H         -2.82376       -1.15473       -1.78572
H         -3.64329        0.34722       -1.41360
C         -4.33132       -1.35741       -0.23192
H         -3.86944       -2.21453        0.28712
H         -4.78129       -0.73471        0.56242
C         -5.45331       -1.87336       -1.13764
H         -4.98187       -2.48256       -1.93254
C         -6.39422       -2.77833       -0.35082
H         -5.85284       -3.61955        0.10935
H         -7.18402       -3.19578       -0.99447
H         -6.88826       -2.21758        0.46031
C         -6.22229       -0.74050       -1.80862
H         -7.03351       -1.13135       -2.44209
H         -5.57641       -0.11982       -2.44755
H         -6.68003       -0.07962       -1.05280
