114
Cat460.ts34.5.log	Energy: -1690706.1113411
C         -1.12485        1.58681       -3.03346
H         -0.73396        1.30929       -4.01602
H         -2.20089        1.43554       -2.91054
C         -0.48959        2.64648       -2.33123
H          0.39408        3.12964       -2.75724
H         -1.11383        3.32311       -1.73700
H         -0.18424        2.03300       -0.78089
Rh         0.09925        0.63256       -1.54400
C         -3.06027        1.15357       -0.12202
C         -2.58464       -1.60761       -1.06699
C         -1.50452       -0.76452        1.41090
C          1.91447       -0.88711        1.09474
C          3.55709        0.21754       -1.00723
C          2.27767        2.03131        0.77895
P          1.92996        0.47849       -0.16417
P         -1.74556       -0.13622       -0.31057
C          0.73225       -0.68007       -2.72727
O          1.12046       -1.50273       -3.44463
C         -2.87993        2.17041        0.84221
O         -1.77689        2.06631        1.61653
C         -1.58913        2.95381        2.67947
H         -0.65112        2.65636        3.16417
H         -1.49174        3.99797        2.33649
H         -2.41261        2.89298        3.41283
C         -4.15593        1.30289       -0.99814
O         -4.28007        0.37986       -1.97696
C         -5.32657        0.47381       -2.89892
H         -5.20930       -0.37301       -3.58752
H         -5.28049        1.41279       -3.47768
H         -6.31418        0.40204       -2.41053
C         -5.06315        2.36268       -0.86934
H         -5.91190        2.45092       -1.54576
C         -3.78305        3.22965        0.98290
H         -3.63342        3.99179        1.74616
C         -4.87378        3.31153        0.12638
H         -5.58217        4.13662        0.22923
H         -2.75380       -1.34345       -2.11845
H         -3.57381       -1.76747       -0.61223
C         -1.71572       -2.85597       -0.99374
H         -0.67995       -2.58288       -1.26129
H         -1.67528       -3.24536        0.03931
C         -2.19215       -3.98222       -1.91568
H         -2.28230       -3.55615       -2.93243
C         -1.16243       -5.10344       -1.97658
H         -0.20544       -4.73648       -2.37703
H         -1.50106       -5.92916       -2.62192
H         -0.97423       -5.52130       -0.97271
C         -3.56001       -4.51671       -1.50540
H         -3.89423       -5.32154       -2.17888
H         -4.32973       -3.73059       -1.51964
H         -3.52512       -4.93045       -0.48289
H         -0.87517       -0.03471        1.93279
H         -0.88204       -1.66209        1.27561
C         -2.75734       -1.06711        2.21418
H         -3.29996       -0.12374        2.39203
H         -3.44812       -1.70361        1.63189
C         -2.48705       -1.75228        3.55733
H         -1.69888       -1.16891        4.07232
C         -3.73471       -1.73422        4.43257
H         -4.08749       -0.70622        4.61112
H         -3.55112       -2.20510        5.41131
H         -4.55749       -2.28648        3.94825
C         -1.97115       -3.17542        3.37566
H         -1.75383       -3.64984        4.34582
H         -1.04714       -3.20539        2.78032
H         -2.72561       -3.79624        2.86305
C          1.65994       -0.73520        2.47158
O          1.44039        0.52027        2.92523
C          1.27547        0.73982        4.29603
H          1.20196        1.82705        4.43126
H          0.35383        0.26880        4.68102
H          2.13646        0.36993        4.87902
C          2.05433       -2.20839        0.61458
O          2.25074       -2.33117       -0.70943
C          2.43954       -3.59502       -1.28420
H          2.51782       -3.42697       -2.36498
H          1.58254       -4.26006       -1.09025
H          3.36297       -4.07241       -0.91361
C          1.99419       -3.31849        1.46553
H          2.11661       -4.32693        1.07374
C          1.60286       -1.83903        3.33268
H          1.40612       -1.70610        4.39504
C          1.77440       -3.11882        2.82193
H          1.72461       -3.97835        3.49416
H          3.68864        1.11298       -1.63588
H          3.40487       -0.61976       -1.69705
C          4.76051       -0.00594       -0.10665
H          4.94787        0.90374        0.49002
H          4.53644       -0.80294        0.62505
C          6.04620       -0.37887       -0.85163
H          6.21537        0.38567       -1.63347
C          7.23880       -0.35203        0.09745
H          7.35974        0.63770        0.56520
H          8.17737       -0.59527       -0.42484
H          7.10838       -1.08882        0.90797
C          5.93396       -1.73628       -1.53816
H          6.86117       -1.98864       -2.07577
H          5.11055       -1.76630       -2.26685
H          5.75209       -2.53089       -0.79444
H          3.02405        1.85521        1.56715
H          1.33450        2.27810        1.28221
C          2.71586        3.16266       -0.14496
H          3.79420        3.06560       -0.35450
H          2.20210        3.07340       -1.11924
C          2.44050        4.55748        0.42664
H          2.76664        4.55527        1.48446
C          3.24958        5.61726       -0.31144
H          4.33152        5.42768       -0.23188
H          3.05303        6.62582        0.08511
H          2.99086        5.62573       -1.38353
C          0.95282        4.89113        0.38643
H          0.73525        5.83089        0.91803
H          0.34042        4.09512        0.83482
H          0.61319        5.00858       -0.65541
