76
Cat468.ts34.5.log	Energy: -1300605.0602750
C          0.90770       -1.99525       -2.84781
H          0.60871       -1.65424       -3.84225
H          1.97028       -2.23069       -2.74885
C         -0.03294       -2.72854       -2.07855
H         -1.03252       -2.90593       -2.48326
H          0.33037       -3.55474       -1.45651
H         -0.15620       -1.99778       -0.63850
Rh         0.11247       -0.58890       -1.41018
O          2.01981       -1.38864        1.34268
C          3.56929       -1.12357       -0.74255
C          2.40240        1.25880        0.70540
O         -1.86104        1.19690        0.84245
C         -3.06402        0.89264       -1.56947
C         -2.72002       -1.26256        0.54806
P         -1.84324        0.06436       -0.42256
P          2.00274       -0.40186       -0.04019
C          0.14570        0.83887       -2.62717
O          0.17568        1.73137       -3.35956
C          0.91718       -1.72443        2.05479
C          0.50687       -3.06065        2.06480
H          1.06052       -3.78043        1.45867
C          0.22392       -0.77871        2.81569
H          0.53828        0.26553        2.79218
C         -0.57551       -3.45094        2.85064
H         -0.88736       -4.49825        2.85699
C         -0.85354       -1.17900        3.60197
H         -1.38739       -0.43575        4.19910
C         -1.25695       -2.51375        3.62775
H         -2.10284       -2.82122        4.24617
H          3.20370       -2.14448       -0.96127
C          3.96856       -0.47812       -2.06651
H          4.62851       -1.15420       -2.63283
H          3.09469       -0.24873       -2.69388
H          4.52275        0.45723       -1.90639
C          4.74865       -1.25700        0.21191
H          4.43945       -1.66704        1.18283
H          5.50557       -1.93172       -0.22079
H          5.23945       -0.28766        0.38239
H          1.39662        1.59725        1.00510
C          3.28626        1.25739        1.94575
H          3.21124        2.23588        2.44701
H          2.98755        0.48177        2.66466
H          4.34420        1.09219        1.69881
C          2.89791        2.23175       -0.35830
H          2.27752        2.20425       -1.26665
H          2.86012        3.25833        0.03529
H          3.93967        2.02252       -0.64255
C         -1.09410        2.29702        0.99083
C         -0.79994        2.68628        2.30455
H         -1.19390        2.08291        3.12436
C         -0.61830        3.06422       -0.07733
H         -0.84237        2.78236       -1.10466
C         -0.02723        3.81772        2.54375
H          0.19717        4.10740        3.57329
C          0.15178        4.19841        0.17525
H          0.51903        4.78655       -0.66911
C          0.45863        4.57954        1.47952
H          1.06530        5.46779        1.66754
H         -2.47209        1.76696       -1.89486
C         -3.34286        0.06306       -2.81847
H         -3.82608        0.68929       -3.58481
H         -2.41230       -0.34387       -3.24189
H         -4.01895       -0.77787       -2.60694
C         -4.33789        1.41008       -0.91593
H         -4.12887        1.95139        0.01736
H         -4.85895        2.09845       -1.60072
H         -5.03460        0.58920       -0.68954
H         -1.86369       -1.70687        1.08144
C         -3.72528       -0.80111        1.59553
H         -3.98450       -1.65612        2.24042
H         -3.31446       -0.00725        2.23040
H         -4.65696       -0.43340        1.14350
C         -3.31437       -2.33816       -0.35390
H         -2.62515       -2.64484       -1.15153
H         -3.55084       -3.23116        0.24574
H         -4.25169       -2.00082       -0.82159
