56
Cat407.ts34.5.log	Energy: -1058348.8503617
C          3.89925        1.13648        0.19664
H          4.73167        0.48681       -0.08644
H          3.86216        2.08139       -0.35461
C          3.47773        1.12773        1.56297
H          3.93350        0.42112        2.26226
H          3.22450        2.08396        2.03486
H          1.85348        1.02866        1.46271
Rh         2.10023       -0.01190        0.23197
C         -0.93574        1.61610       -0.70042
C          1.35840        3.09604       -1.40230
C          0.69487        0.81447       -2.92994
C         -1.00842       -1.65754        0.18609
C          0.98864       -3.05138        1.62055
C         -0.18689       -0.75231        2.79883
P          0.48959       -1.33321        1.19901
P          0.81719        1.34766       -1.17866
C          2.83360       -1.44682       -0.74328
O          3.23154       -2.33670       -1.36357
C         -2.02408        1.34335       -1.53172
H         -1.87262        0.95647       -2.54032
C         -1.18094        2.08258        0.59940
H         -0.32849        2.26539        1.26237
C         -3.32386        1.54651       -1.06696
H         -4.17087        1.31976       -1.71940
C         -2.47383        2.29908        1.07611
C         -2.71415        2.80056        2.47110
H         -1.77218        2.91486        3.02594
H         -3.21901        3.77986        2.46243
H         -3.36002        2.11139        3.03838
C         -3.54937        2.02499        0.21851
H         -4.57331        2.18420        0.56935
H          1.38812        3.59463       -0.42274
H          2.37529        3.10487       -1.82220
H          0.68186        3.65055       -2.07014
H          0.13176        1.52115       -3.55940
H          1.72049        0.72074       -3.31495
H          0.22623       -0.17827       -2.97589
C         -0.81056       -2.11074       -1.12673
H          0.20613       -2.24593       -1.50601
C         -2.31117       -1.46612        0.64591
H         -2.48712       -1.09670        1.65871
C         -1.90220       -2.37492       -1.94489
H         -1.74375       -2.73297       -2.96536
C         -3.42200       -1.71986       -0.17078
C         -4.80933       -1.50013        0.35667
H         -5.03149       -2.18485        1.19093
H         -4.92434       -0.47337        0.73732
H         -5.56848       -1.66240       -0.42132
C         -3.19999       -2.17731       -1.47087
H         -4.05419       -2.37829       -2.12332
H          1.33689       -3.55592        0.70836
H          1.83047       -3.00817        2.32687
H          0.15459       -3.62120        2.05805
H         -0.88767       -1.47327        3.24625
H          0.66224       -0.60023        3.47998
H         -0.68968        0.21358        2.65288
