70
Cat41.ts34.5.log	Energy: -2452082.9092917
C          0.38633       -3.64293        0.97641
H          0.39060       -4.42516        0.21256
H          1.26520       -3.64318        1.62827
C         -0.87114       -3.24534        1.51855
H         -1.79669       -3.67041        1.11999
H         -0.93406       -3.04458        2.59444
H         -0.86576       -1.62220        1.46423
Rh        -0.10397       -1.77462        0.03169
C          1.77959        0.01238        2.58104
C          3.36038       -0.98891        0.44346
C          1.73294        1.25967       -0.00236
C         -1.76834        0.07198       -2.50989
C         -3.41550       -0.84496       -0.36013
C         -1.65459        1.36595        0.08995
P         -1.69640       -0.28998       -0.69716
P          1.64579       -0.39854        0.78194
C          0.32361       -2.38566       -1.69688
O          0.58360       -2.72359       -2.76906
H          0.87632        0.59314        2.83071
C          1.86922       -1.23585        3.44295
H          2.75045       -1.84164        3.18040
H          0.97799       -1.86792        3.31937
H          2.65099        0.66591        2.75286
H          1.95062       -0.97261        4.50827
C          3.56803       -2.28242       -0.04102
H          2.70091       -2.91899       -0.23159
C          4.47244       -0.16503        0.66442
H          4.33295        0.86090        1.01668
C          4.85440       -2.75735       -0.29019
H          5.01580       -3.76732       -0.67028
C          5.76186       -0.62295        0.41995
H          6.62846        0.01903        0.58634
C          5.94437       -1.92331       -0.05484
Cl         7.54767       -2.49968       -0.36273
C          1.76273        2.46510        0.70439
H          1.75543        2.47308        1.79514
C          1.72955        1.30581       -1.40455
H          1.69992        0.36933       -1.96953
C          1.77155        3.68890        0.03671
H          1.75805        4.62664        0.59475
C          1.74951        2.51730       -2.08409
H          1.74436        2.55040       -3.17502
C          1.75599        3.70719       -1.35352
Cl         1.68984        5.22514       -2.18797
H         -1.58747       -0.89932       -2.99525
C         -3.04057        0.70556       -3.04917
H         -3.29366        1.64712       -2.53997
H         -3.89947        0.03007       -2.92684
H         -0.87227        0.67785       -2.72633
H         -2.93551        0.92342       -4.12326
C         -3.71701       -2.19219       -0.59583
H         -2.91493       -2.86429       -0.91630
C         -4.43600        0.00948        0.07075
H         -4.22436        1.06470        0.25772
C         -5.00739       -2.67947       -0.41687
H         -5.24356       -3.72826       -0.60411
C         -5.72887       -0.46874        0.27024
H         -6.52444        0.19475        0.61324
C         -6.00775       -1.81161        0.02212
Cl        -7.61298       -2.41133        0.26690
C         -1.49575        2.55827       -0.62196
H         -1.43866        2.55444       -1.71059
C         -1.69203        1.42564        1.49065
H         -1.79696        0.50106        2.06526
C         -1.37046        3.77899        0.03740
H         -1.21243        4.69994       -0.52595
C         -1.57730        2.63645        2.16318
H         -1.60142        2.67828        3.25344
C         -1.40517        3.80973        1.42744
Cl        -1.17719        5.31412        2.25475
