96
Cat490.ts34.5.log	Energy: -1871575.9489406
C         -1.07571       -3.16221       -1.76794
H         -0.69551       -4.12346       -1.41205
H         -2.16587       -3.06431       -1.77119
C         -0.32077       -2.45609       -2.74055
H          0.63746       -2.85244       -3.08985
H         -0.86507       -1.89843       -3.51065
H         -0.08501       -0.93314       -2.16101
Rh        -0.04438       -1.60593       -0.68578
O         -1.72484        1.21094       -1.03161
C         -3.44595       -0.86751       -0.79958
C         -2.10146        0.21524        1.58788
O          2.14223       -0.17121        1.26223
C          3.41928       -1.23405       -0.90826
C          1.97254        1.22492       -1.17656
P          1.85830       -0.41887       -0.37284
P         -1.85017       -0.23512       -0.18301
C          0.19813       -2.69827        0.83702
O          0.28476       -3.34167        1.78772
C         -2.43762        2.36442       -1.03722
C         -1.93886        3.37336       -1.87201
H         -1.03941        3.16496       -2.45326
C         -3.59842        2.58579       -0.29487
H         -4.02049        1.78802        0.31427
C         -2.58076        4.60522       -1.93489
H         -2.18019        5.38563       -2.58717
C         -4.22951        3.82825       -0.36687
H         -5.13687        3.99458        0.21962
C         -3.72730        4.84555       -1.17495
H         -4.23010        5.81390       -1.22266
C         -4.05515       -0.37797       -1.95301
H         -3.65228        0.51543       -2.43358
C         -3.94945       -2.04635       -0.21285
O         -3.27973       -2.46847        0.87670
C         -3.53157       -3.73844        1.40693
H         -4.53853       -3.80268        1.85625
H         -2.77767       -3.90323        2.18675
H         -3.43099       -4.52351        0.63770
C         -5.17053       -1.01741       -2.50039
H         -5.64166       -0.61433       -3.39924
C         -5.05882       -2.69298       -0.75708
H         -5.44975       -3.60314       -0.30054
C         -5.66994       -2.16723       -1.89918
H         -6.53951       -2.67611       -2.32212
C         -0.91960        0.33182        2.32832
H          0.03611        0.20168        1.81816
C         -3.32826        0.32261        2.28108
O         -4.46257        0.19793        1.56507
C         -5.69955        0.09473        2.20918
H         -5.70607       -0.73298        2.93917
H         -6.43739       -0.11363        1.42372
H         -5.97690        1.03018        2.72619
C         -0.92832        0.58819        3.69766
H          0.01668        0.67451        4.23781
C         -3.34130        0.55951        3.66009
H         -4.28882        0.64035        4.19305
C         -2.14544        0.69862        4.36099
H         -2.17570        0.88356        5.43781
C          3.29115        0.19267        1.89662
C          3.50075        1.52756        2.24720
H          2.74991        2.26256        1.95887
C          4.21936       -0.78682        2.25415
H          4.02362       -1.82561        1.98287
C          4.65245        1.88092        2.94510
H          4.81479        2.92578        3.22229
C          5.37230       -0.42059        2.94598
H          6.09908       -1.18823        3.22327
C          5.59551        0.91213        3.29241
H          6.49738        1.19404        3.84068
C          3.33583       -2.57884       -1.27487
H          2.34024       -3.03579       -1.25844
C          4.68910       -0.61047       -0.90711
O          4.72973        0.67985       -0.55181
C          5.95854        1.33700       -0.42068
H          6.60294        0.83799        0.32229
H          5.72762        2.34843       -0.06543
H          6.48912        1.40442       -1.38633
C          4.46549       -3.31306       -1.63239
H          4.37357       -4.36444       -1.91148
C          5.82557       -1.34405       -1.26618
H          6.80824       -0.87235       -1.26192
C          5.70727       -2.68616       -1.62454
H          6.60642       -3.24330       -1.90021
C          2.53016        1.30086       -2.45513
H          2.96447        0.39945       -2.89585
C          1.38740        2.38302       -0.62779
O          0.80001        2.26400        0.57705
C          0.15722        3.37256        1.15247
H          0.87625        4.17709        1.38855
H         -0.30059        3.01085        2.08132
H         -0.63376        3.76960        0.49654
C          2.55305        2.49308       -3.17386
H          2.99620        2.52360       -4.17125
C          1.44071        3.59206       -1.33227
H          1.00566        4.49402       -0.90271
C          2.01892        3.64234       -2.59824
H          2.04191        4.59226       -3.13807
