94
Cat446.ts34.5.log	Energy: -2026083.1442453
C         -0.99159       -3.03192       -1.82698
H         -0.81519       -4.05213       -1.47476
H         -2.04502       -2.76933       -1.96023
C         -0.01681       -2.43211       -2.66871
H          0.92517       -2.94771       -2.87671
H         -0.35809       -1.80911       -3.50205
H          0.12322       -0.91562       -2.01330
Rh         0.06313       -1.64516       -0.58330
C         -2.17187        1.19813       -1.02557
C         -3.43023       -1.17015       -0.06365
C         -1.87948        0.28554        1.73411
C          2.70112        0.11759        1.46322
C          3.49188       -1.10840       -0.96835
C          1.89803        1.30499       -0.91923
P          1.98847       -0.38444       -0.17474
P         -1.80270       -0.29795       -0.01203
C          0.21672       -3.01843        0.69707
O          0.21228       -3.96070        1.36373
C         -2.04201        2.53610       -0.60153
O         -1.54295        2.74562        0.62691
C         -1.70790        3.99686        1.24907
H         -1.38695        3.86037        2.28981
H         -1.08111        4.76744        0.76913
H         -2.76540        4.30953        1.23871
C         -2.55315        0.97295       -2.36670
O         -2.56796       -0.31960       -2.75220
C         -3.12870       -0.67338       -3.98668
H         -3.09222       -1.76860       -4.04028
H         -2.55606       -0.25453       -4.83208
H         -4.17861       -0.34314       -4.06238
C         -2.90196        2.02447       -3.21880
H         -3.22016        1.83351       -4.24285
C         -2.40027        3.59657       -1.44780
H         -2.29632        4.62614       -1.10882
C         -2.83352        3.33083       -2.73879
H         -3.10117        4.16081       -3.39655
C         -4.62311       -0.58543       -0.50288
H         -4.62088        0.43958       -0.88156
C         -3.46792       -2.48188        0.42426
H         -2.54199       -2.95398        0.76135
C         -5.82460       -1.28954       -0.46335
H         -6.76059       -0.84416       -0.80602
C         -4.66157       -3.19542        0.47946
H         -4.69963       -4.21798        0.85928
C         -5.82774       -2.58847        0.02955
F         -6.97356       -3.26713        0.06830
C         -3.05165        0.77542        2.32299
H         -3.97899        0.81459        1.74684
C         -0.71630        0.22091        2.50053
H          0.18209       -0.19893        2.04913
C         -3.05108        1.22187        3.63986
H         -3.95505        1.60677        4.11582
C         -0.69367        0.67146        3.81908
H          0.21935        0.63622        4.41727
C         -1.86598        1.17066        4.36956
F         -1.86405        1.60334        5.63042
C          3.42521        1.31481        1.58512
O          3.70072        2.11041        0.52086
C          1.03333        4.34051       -0.72681
H          2.33380        4.13592        0.87191
H          1.55209        6.81743       -0.51613
H          1.95449        7.45669       -0.39193
C          2.61002       -0.69281        2.62120
O          1.99974       -1.88025        2.49092
C          1.85920       -2.70131        3.62376
H          1.33472       -3.60104        3.28799
H          1.26067       -2.20461        4.40608
H          2.84157       -2.98260        4.03830
C          3.14886       -0.26858        3.84230
H          3.05957       -0.89272        4.72919
C          3.97833        1.73623        2.79700
H          4.52512        2.67951        2.81490
C          3.82869        0.94313        3.92135
H          4.25304        1.26111        4.87634
C          3.45879       -2.46484       -1.30621
H          2.54406       -3.02876       -1.10044
C          4.65767       -0.37226       -1.22476
H          4.71674        0.68092       -0.94515
C          4.56060       -3.08516       -1.89052
H          4.54989       -4.14422       -2.15464
C          5.76038       -0.97713       -1.81844
H          6.67405       -0.41837       -2.02934
C          5.69652       -2.32814       -2.14420
F          6.75190       -2.90745       -2.71197
C          2.67577        2.43822       -0.38334
H          3.18906        2.96731       -1.20692
C          1.00180        1.57268       -1.91773
H          0.40702        0.73607       -2.28874
C          1.70361        3.48819        0.23234
H          0.96579        3.02947        0.91765
C          0.68288        2.83069       -2.48838
H         -0.09972        2.81283       -3.25835
C          1.02391        4.12462       -2.06960
F          0.80415        5.11912       -2.93664
