108
Cat429.ts34.5.log	Energy: -1736456.8228049
C         -0.75512        1.54111       -3.12892
H         -0.34604        1.31573       -4.11697
H         -1.84548        1.48413       -3.05441
C         -0.06683        2.45413       -2.29843
H          0.86605        2.90099       -2.64426
H         -0.64932        3.09566       -1.62881
H          0.25216        1.68111       -0.81783
Rh         0.33148        0.32392       -1.69670
C         -2.76498        1.23448       -0.39924
C         -2.74179       -1.24913       -1.97240
C         -2.03705       -1.24029        0.90611
C          2.08581       -1.24504        0.91456
C          3.57554       -0.98327       -1.47793
C          3.21231        1.34995        0.18414
P          2.24264       -0.08142       -0.50922
P         -1.75079       -0.26908       -0.69678
C          0.66444       -1.05552       -2.92902
O          0.83760       -1.94102       -3.65083
C         -2.23035        2.16561        0.50540
H         -1.25613        1.98385        0.96461
C         -3.98495        1.52903       -1.00994
H         -4.42196        0.83500       -1.72988
C         -2.92988        3.32363        0.81699
H         -2.50808        4.02792        1.53769
C         -4.69355        2.70385       -0.72366
C         -5.98966        2.99645       -1.42345
H         -5.81177        3.40724       -2.43138
H         -6.59630        2.08655       -1.54720
H         -6.58967        3.73236       -0.86943
C         -4.15683        3.59182        0.21044
H         -4.70103        4.50694        0.45956
H         -3.24678       -0.49901       -2.59614
H         -1.97364       -1.69586       -2.61527
C         -3.70276       -2.29251       -1.49790
C         -5.05433       -1.99237       -1.29018
H         -5.41456       -0.98338       -1.50199
C         -3.24667       -3.60269       -1.22893
C         -1.80750       -3.97634       -1.43673
H         -1.13475       -3.34341       -0.83646
H         -1.49551       -3.85175       -2.48603
H         -1.62567       -5.02196       -1.15334
C         -5.94926       -2.94845       -0.81741
H         -6.99841       -2.68514       -0.66415
C         -4.15779       -4.55206       -0.75471
H         -3.80229       -5.56482       -0.54559
C         -5.49783       -4.23664       -0.54437
H         -6.18692       -4.99745       -0.17060
H         -2.64521       -2.11190        0.62598
H         -1.05221       -1.60838        1.21589
C         -2.72434       -0.49832        2.01085
C         -4.11386       -0.33430        1.96907
H         -4.67224       -0.79215        1.14878
C         -1.99667        0.08060        3.06802
C         -0.51070       -0.08995        3.15646
H         -0.01490        0.20670        2.22103
H         -0.22866       -1.14000        3.33690
H         -0.08827        0.51370        3.97237
C         -4.78396        0.41002        2.93343
H         -5.86777        0.53325        2.87199
C         -2.68450        0.82352        4.03366
H         -2.11777        1.27690        4.85219
C         -4.06393        0.99967        3.97043
H         -4.57556        1.59296        4.73216
C          1.32752       -2.39888        0.67134
H          0.82861       -2.50761       -0.29619
C          2.70298       -1.10036        2.15713
H          3.31917       -0.22436        2.36993
C          1.20883       -3.38228        1.64608
H          0.62140       -4.28147        1.44388
C          2.57590       -2.07037        3.16126
C          3.23438       -1.86308        4.49378
H          4.28934       -1.57175        4.37453
H          2.73692       -1.05726        5.05805
H          3.19790       -2.77245        5.10954
C          1.82526       -3.21629        2.88767
H          1.72006       -3.98745        3.65548
H          3.14131       -1.97562       -1.67478
H          3.62308       -0.46696       -2.44594
C          4.91459       -1.09269       -0.81637
C          5.11188       -2.04479        0.19362
H          4.29917       -2.73147        0.43924
C          5.98368       -0.24014       -1.17072
C          5.88241        0.72720       -2.31802
H          5.07002        1.46002       -2.19664
H          5.68973        0.20172       -3.26750
H          6.81781        1.29123       -2.43538
C          6.31700       -2.13391        0.88391
H          6.44073       -2.88461        1.66815
C          7.18725       -0.34221       -0.46397
H          8.01497        0.31824       -0.73717
C          7.35844       -1.26758        0.56254
H          8.31026       -1.32185        1.09628
H          3.88100        0.97884        0.97421
H          3.87129        1.65754       -0.63420
C          2.37493        2.50106        0.65262
C          1.66520        2.40543        1.85390
H          1.76623        1.50215        2.45730
C          2.26055        3.67519       -0.11933
C          3.04406        3.85610       -1.38825
H          2.88694        3.02077       -2.08811
H          4.12692        3.91224       -1.18672
H          2.75517        4.78402       -1.90043
C          0.82361        3.42597        2.28674
H          0.26908        3.31681        3.22194
C          1.40989        4.69251        0.32704
H          1.31244        5.59968       -0.27561
C          0.68811        4.57524        1.51224
H          0.02705        5.38445        1.83138
