88
Cat427.ts34.5.log	Energy: -2881280.4878493
C         -2.29852       -2.18613       -2.78636
H         -2.91762       -3.04826       -2.52723
H         -2.85675       -1.32771       -3.17019
C         -0.97204       -2.41413       -3.24870
H         -0.56627       -3.42923       -3.25600
H         -0.58715       -1.78480       -4.05895
H         -0.06428       -1.36825       -2.37126
Rh        -1.01381       -1.73602       -1.11442
C         -0.76577        1.83167       -1.67607
O         -3.15997        0.96436       -1.16467
O         -1.45497        0.90545        0.77659
C          0.53937       -2.36316        1.91339
O          2.16189       -2.70700       -0.11864
O          1.46086       -0.28534        0.37099
P          0.78873       -1.80705        0.20408
P         -1.59899        0.44366       -0.84378
C         -2.04805       -2.86099        0.03730
O         -2.69322       -3.50884        0.72891
C          0.54458        1.63182       -2.11854
H          0.99353        0.63999       -2.03541
C         -1.34916        3.09955       -1.78093
H         -2.38083        3.24174       -1.45423
C          1.26712        2.70437       -2.63532
H          2.28965        2.55278       -2.99082
C         -0.62393        4.19019       -2.26671
C         -1.22876        5.56375       -2.27254
H         -2.30542        5.52798       -2.49330
H         -1.11525        6.03805       -1.28299
H         -0.74575        6.21840       -3.01183
C          0.69204        3.97174       -2.69501
H          1.27338        4.81147       -3.08604
C         -4.25242        0.20623       -0.86092
C         -5.28041        0.14457       -1.80303
H         -5.16802        0.69126       -2.74110
C         -4.36924       -0.48223        0.34872
H         -3.56876       -0.42277        1.08705
C         -6.42081       -0.60704       -1.54346
H         -7.22948       -0.66248       -2.27384
C         -5.50428       -1.24690        0.60475
H         -5.59610       -1.80156        1.53956
C         -6.52501       -1.30727       -0.34099
Cl        -7.93893       -2.25765       -0.02224
C         -1.35638        2.21643        1.15671
C         -2.50620        2.97203        1.38128
H         -3.48588        2.49987        1.28735
C         -0.09173        2.79268        1.27978
H          0.78952        2.17542        1.10027
C         -2.39286        4.32762        1.67959
H         -3.28174        4.94053        1.83702
C          0.02479        4.14550        1.57599
H          1.00610        4.61659        1.64856
C         -1.12854        4.90962        1.75393
Cl        -0.98794        6.61421        2.04443
C          1.17768       -3.47855        2.45876
H          1.88863       -4.04710        1.85757
C         -0.37225       -1.62337        2.67678
H         -0.86309       -0.75291        2.22980
C          0.89975       -3.83826        3.77660
H          1.39223       -4.70889        4.21644
C         -0.64940       -1.97422        3.99932
C         -1.64045       -1.18984        4.80851
H         -1.80939       -0.19309        4.37721
H         -2.61350       -1.70750        4.84110
H         -1.30443       -1.06360        5.84837
C          0.00222       -3.09310        4.53718
H         -0.20127       -3.38543        5.57125
C          3.18723       -2.28036       -0.91512
C          4.48151       -2.37662       -0.40181
H          4.62323       -2.79502        0.59571
C          2.97482       -1.74094       -2.18373
H          1.96311       -1.69461       -2.58757
C          5.55985       -1.89601       -1.13369
H          6.57165       -1.94297       -0.72854
C          4.05275       -1.25088       -2.91698
H          3.89778       -0.81401       -3.90492
C          5.33826       -1.31768       -2.38388
Cl         6.67415       -0.67185       -3.27944
C          2.68512        0.03635        0.89574
C          3.50601        0.85727        0.11969
H          3.14527        1.19622       -0.85144
C          3.11539       -0.40245        2.14828
H          2.46571       -1.01957        2.76769
C          4.77421        1.20343        0.56710
H          5.43005        1.82366       -0.04550
C          4.38920       -0.06015        2.59639
H          4.74271       -0.40686        3.56874
C          5.21789        0.72854        1.80130
Cl         6.81307        1.12512        2.34998
