98
Cat499.ts34.5.log	Energy: -1637265.3205817
C          2.81248        0.74451        2.28753
H          2.77758        0.38199        3.31814
H          3.74862        0.53733        1.76134
C          2.09453        1.92698        1.95805
H          1.46582        2.40986        2.71068
H          2.53941        2.62496        1.23954
H          1.29154        1.50545        0.54821
Rh         1.02805        0.08708        1.26588
O          3.34016       -0.20319       -1.22467
O          2.75930       -2.42169       -0.40312
O          1.05463       -1.26914       -1.74857
O         -1.74633       -1.06532       -0.01045
O         -2.24192        0.99323        1.39206
O         -1.19541        1.32027       -0.80556
P         -1.03629        0.35256        0.48004
P          2.02569       -0.96216       -0.48609
C          0.54581       -1.16894        2.61312
O          0.23876       -1.93773        3.41213
C          3.40673        1.15051       -1.36120
C          4.56119        1.80675       -0.93258
H          5.37010        1.21681       -0.49671
C          2.35658        1.88775       -1.91459
H          1.44558        1.37717       -2.23283
C          4.66377        3.18906       -1.05858
H          5.57248        3.69044       -0.71372
C          2.47634        3.27010       -2.03278
H          1.64768        3.83684       -2.46429
C          3.62395        3.94922       -1.60792
C          3.74432        5.43778       -1.76430
H          4.44213        5.86556       -1.02993
H          2.77097        5.93518       -1.63881
H          4.11923        5.70502       -2.76667
C          3.89382       -2.66053        0.41835
H          4.47587       -3.43572       -0.10593
H          4.52335       -1.75582        0.46133
C          3.51766       -3.13415        1.80814
H          4.45523       -3.36840        2.34349
H          3.04610       -2.30421        2.35896
C          2.59678       -4.34588        1.81133
H          3.06354       -5.15682        1.22323
H          1.66857       -4.08307        1.27773
C          2.26620       -4.84281        3.20893
H          3.17677       -5.12739        3.76128
H          1.74905       -4.06527        3.79157
H          1.60794       -5.72430        3.17697
C          1.45026       -2.02974       -2.89134
H          0.94987       -1.55135       -3.74911
H          2.53811       -1.94053       -3.04010
C          1.03191       -3.48101       -2.76444
H          1.31713       -3.99644       -3.69933
H          1.62111       -3.94164       -1.95595
C         -0.45293       -3.66900       -2.48968
H         -1.03965       -3.24012       -3.32159
H         -0.72263       -3.08110       -1.59784
C         -0.84199       -5.12308       -2.28407
H         -0.60813       -5.73631       -3.16994
H         -0.29999       -5.56023       -1.42978
H         -1.91881       -5.22603       -2.08138
C         -2.87810       -1.08840       -0.78424
C         -2.77290       -0.93760       -2.16712
H         -1.78484       -0.78193       -2.60203
C         -4.12494       -1.27901       -0.19417
H         -4.18976       -1.39603        0.88856
C         -3.92201       -0.97376       -2.95015
H         -3.83308       -0.85149       -4.03343
C         -5.26600       -1.31438       -0.99247
H         -6.24196       -1.46166       -0.52150
C         -5.18855       -1.16284       -2.38153
C         -6.41799       -1.23368       -3.24054
H         -6.34485       -0.55912       -4.10643
H         -7.32184       -0.96565       -2.67467
H         -6.56818       -2.25297       -3.63443
C         -2.40721        0.62086        2.75150
H         -2.63985       -0.45796        2.81727
H         -1.46009        0.78870        3.29319
C         -3.52863        1.44466        3.34192
H         -3.59050        1.21346        4.41960
H         -3.25452        2.51173        3.26836
C         -4.87932        1.21257        2.67873
H         -5.15652        0.14899        2.79076
H         -4.77647        1.38330        1.59463
C         -5.98208        2.09266        3.24262
H         -6.12257        1.92122        4.32220
H         -5.74653        3.16077        3.10841
H         -6.94614        1.90132        2.74762
C         -2.29556        2.18426       -1.09658
H         -2.30647        2.26899       -2.19456
H         -3.24258        1.71930       -0.78582
C         -2.11791        3.54259       -0.44878
H         -2.96394        4.17874       -0.76476
H         -2.20719        3.42409        0.64336
C         -0.79568        4.21225       -0.78992
H         -0.72942        4.34846       -1.88467
H          0.02410        3.52641       -0.52303
C         -0.59466        5.54594       -0.09115
H         -1.37987        6.27052       -0.36164
H         -0.62037        5.42666        1.00406
H          0.37676        5.99450       -0.35071
