86
Cat49.ts34.5.log	Energy: -1586145.1021139
C          0.50156       -3.57054        1.15591
H          0.74480       -4.37148        0.45282
H          1.29020       -3.35432        1.88300
C         -0.86017       -3.40315        1.53927
H         -1.62924       -4.02354        1.07076
H         -1.08880       -3.16158        2.58272
H         -1.12883       -1.76262        1.39810
Rh        -0.20817       -1.85610        0.06945
C          0.88745        0.58461        2.45198
O          2.85425       -0.59674        1.34727
O          1.44916        0.94360       -0.21066
C         -0.96589        0.50752       -2.37421
O         -3.11001       -0.42341       -1.28753
O         -1.63088        0.93647        0.33915
P         -1.52541       -0.25700       -0.81241
P          1.27045       -0.30171        0.89916
C          0.28090       -2.58714       -1.62154
O          0.58559       -3.00475       -2.64940
H         -0.05039        1.12517        2.25181
C          0.73770       -0.36925        3.62687
H          1.67656       -0.90862        3.82191
H         -0.05100       -1.11295        3.43597
H          1.68875        1.31601        2.63590
H          0.46565        0.17797        4.54169
C          3.84963       -1.15897        0.59329
C          3.63632       -2.25863       -0.23428
H          2.63717       -2.68825       -0.29733
C          5.12070       -0.57373        0.72382
C          5.32197        0.59135        1.64208
H          4.70012        1.44790        1.33946
H          5.03008        0.33675        2.67281
H          6.37263        0.91153        1.64552
C          4.69455       -2.77670       -0.97867
H          4.52076       -3.63222       -1.63535
C          6.16275       -1.11822       -0.03056
H          7.15773       -0.67265        0.05486
C          5.96011       -2.20411       -0.88310
H          6.79318       -2.60485       -1.46485
C          2.42611        1.90363       -0.25684
C          2.36837        3.00919        0.59570
H          1.53871        3.09379        1.29835
C          3.42850        1.78800       -1.23428
C          3.46148        0.64451       -2.20329
H          4.33586       -0.00023       -2.02419
H          2.56523        0.01818       -2.11884
H          3.53168        1.01788       -3.23650
C          3.34639        3.99668        0.52277
H          3.29975        4.85690        1.19437
C          4.39729        2.79757       -1.28371
H          5.19094        2.72105       -2.03219
C          4.37258        3.88446       -0.41428
H          5.14673        4.65238       -0.47780
H         -0.65272       -0.36202       -2.97587
C         -1.93717        1.37189       -3.16204
H         -2.30282        2.22896       -2.58061
H         -2.80960        0.78594       -3.47936
H         -0.03078        1.02500       -2.11034
H         -1.43998        1.76400       -4.06231
C         -4.13797       -1.02600       -0.61348
C         -4.00112       -2.28368       -0.03133
H         -3.03810       -2.78959       -0.10249
C         -5.35905       -0.33201       -0.58833
C         -5.48486        1.00019       -1.26151
H         -4.74686        1.72117       -0.87608
H         -5.30073        0.91521       -2.34390
H         -6.48875        1.42103       -1.11440
C         -5.08666       -2.85897        0.62558
H         -4.97845       -3.84410        1.08561
C         -6.43179       -0.93796        0.07221
H         -7.39011       -0.41236        0.10469
C         -6.30387       -2.18433        0.68350
H         -7.15883       -2.63132        1.19556
C         -2.01131        2.24895        0.29888
C         -1.26598        3.19085       -0.40967
H         -0.38396        2.86687       -0.96187
C         -3.09518        2.63028        1.10720
C         -3.79253        1.61955        1.96423
H         -4.23619        0.80649        1.37110
H         -3.08191        1.14202        2.65733
H         -4.59093        2.08921        2.55427
C         -1.64135        4.53186       -0.38234
H         -1.05852        5.26616       -0.94288
C         -3.45015        3.98306        1.11273
H         -4.29673        4.29846        1.72873
C         -2.74557        4.92807        0.36887
H         -3.04763        5.97736        0.39354
