80
Cat430.ts34.5.log	Energy: -1255544.8915311
C          0.93720       -3.53697        0.91794
H          0.80710       -4.39843        0.25730
H          1.96793       -3.38596        1.25566
C         -0.12517       -3.21688        1.82154
H         -1.06474       -3.77468        1.76946
H          0.13234       -2.93184        2.84852
H         -0.24780       -1.60012        1.67515
Rh        -0.04523       -1.83678        0.08214
C          1.52559        1.10784        1.22646
C          3.40078       -0.93748        0.52555
C          2.04490        0.52836       -1.56189
C         -1.53024        0.92258       -1.45863
C         -3.42150       -1.06075       -0.64619
C         -2.15413        0.61482        1.36035
P         -1.78576       -0.35208       -0.16341
P          1.72710       -0.29709        0.05790
C         -0.26275       -2.60363       -1.62656
O         -0.39465       -3.03619       -2.69032
C          1.34253        2.43513        0.82547
H          1.41636        2.71078       -0.22649
C          1.40201        0.80289        2.59159
H          1.50401       -0.23813        2.91462
C          1.03054        3.41830        1.76683
H          0.87817        4.44985        1.43810
C          1.10373        1.77402        3.54674
C          0.97383        1.42067        4.99996
H          1.04234        0.33531        5.15801
H          1.76685        1.89802        5.59802
H          0.01045        1.76348        5.40890
C          0.90979        3.09497        3.11330
H          0.65941        3.87151        3.84153
H          4.11485       -0.10243        0.61942
H          3.29197       -1.37445        1.53282
C          3.90737       -1.99439       -0.44865
H          4.11782       -1.52375       -1.42394
H          3.10028       -2.72158       -0.63808
C          5.15350       -2.70983        0.04888
H          5.97926       -2.00290        0.22966
H          4.95704       -3.23625        0.99696
H          5.50641       -3.45671       -0.67853
H          2.01439       -0.28337       -2.30725
H          1.14286        1.12674       -1.77013
C          3.30758        1.36632       -1.72770
H          4.19272        0.70930       -1.71194
H          3.43092        2.04694       -0.86931
C          3.29250        2.17035       -3.01970
H          3.19129        1.51176       -3.89707
H          2.43944        2.86828       -3.04091
H          4.21470        2.75829       -3.14513
C         -1.44789        0.51081       -2.79637
H         -1.61010       -0.53612       -3.06290
C         -1.27583        2.26399       -1.15345
H         -1.32057        2.60592       -0.11845
C         -1.12029        1.42611       -3.79144
H         -1.05829        1.09557       -4.83106
C         -0.92425        3.19162       -2.14143
C         -0.59162        4.60874       -1.77275
H         -1.03179        4.88697       -0.80454
H          0.50011        4.74785       -1.68993
H         -0.95032        5.32025       -2.53099
C         -0.85308        2.75574       -3.46823
H         -0.58400        3.46431       -4.25653
H         -4.16071       -0.24897       -0.75276
H         -3.27781       -1.49791       -1.64817
C         -3.89854       -2.13474        0.32094
H         -4.05791       -1.69131        1.31960
H         -3.08589       -2.87100        0.44323
C         -5.17287       -2.82400       -0.14024
H         -6.00214       -2.10705       -0.25248
H         -5.02647       -3.31450       -1.11580
H         -5.49409       -3.59594        0.57568
H         -2.18147       -0.13247        2.17009
H         -1.24510        1.20705        1.56128
C         -3.40525        1.48298        1.38806
H         -4.30041        0.83918        1.36900
H         -3.46281        2.09965        0.47592
C         -3.44656        2.38051        2.61628
H         -3.41615        1.78694        3.54414
H         -2.57960        3.06076        2.63711
H         -4.35970        2.99456        2.64113
