98
Cat456.ts34.5.log	Energy: -3119229.9316023
C          0.94969       -0.99163       -3.90509
H          0.81828       -0.30173       -4.74219
H          1.98467       -1.30146       -3.72739
C         -0.10466       -1.89448       -3.59542
H         -1.04882       -1.84096       -4.14346
H          0.15404       -2.90693       -3.26631
H         -0.28663       -1.72810       -1.93145
Rh        -0.05746       -0.15933       -2.19761
C          2.61492       -1.90105       -0.74781
O          2.93904        0.80077       -1.50538
O          1.80006        0.22299        0.72986
C         -1.67295        0.57353        0.91946
O         -2.94819        1.24703       -1.34716
O         -2.70235       -1.30988       -0.82794
P         -1.83344        0.09729       -0.85721
P          1.81326       -0.24601       -0.88863
C         -0.19529        1.60253       -2.90827
O         -0.29289        2.69618       -3.25081
C          1.79583       -2.87634       -0.13618
O          0.66012       -2.40126        0.39973
C         -0.27879       -3.26652        0.97733
H         -1.14579       -2.64754        1.23836
H         -0.59970       -4.04410        0.26382
H          0.12575       -3.74400        1.88606
C          3.83488       -2.31955       -1.30875
O          4.61719       -1.37011       -1.85445
C          5.87272       -1.72626       -2.36657
H          6.34583       -0.79486       -2.69935
H          5.78364       -2.41508       -3.22390
H          6.51010       -2.19077       -1.59513
C          4.21051       -3.66999       -1.26797
H          5.15405       -3.99747       -1.70107
C          2.16679       -4.22185       -0.08691
H          1.53230       -4.96045        0.40084
C          3.37526       -4.60002       -0.66051
H          3.67948       -5.64878       -0.62801
C          4.07798        1.40432       -1.08528
C          5.07805        1.59425       -2.04431
H          4.90506        1.21202       -3.05128
C          4.25024        1.92613        0.19972
H          3.46030        1.81853        0.94043
C          6.25130        2.26316       -1.72008
H          7.03172        2.41453       -2.46793
C          5.43128        2.58802        0.53058
H          5.57271        2.98833        1.53581
C          6.43103        2.74907       -0.42423
Cl         7.89987        3.57215       -0.00908
C          2.30596       -0.45999        1.79684
C          1.43977       -0.74916        2.85230
H          0.39754       -0.44149        2.77485
C          3.64488       -0.85140        1.86770
H          4.32651       -0.62249        1.04837
C          1.90359       -1.42560        3.97397
H          1.23165       -1.65226        4.80345
C          4.11138       -1.53737        2.98686
H          5.15473       -1.85027        3.04728
C          3.23964       -1.82386        4.03407
Cl         3.81791       -2.68155        5.42691
C         -2.25199       -0.04698        2.04357
O         -3.05134       -1.11107        1.82745
C         -3.75649       -1.67294        2.90261
H         -4.40271       -2.44779        2.47279
H         -3.07787       -2.13215        3.64190
H         -4.38612       -0.92275        3.40967
C         -0.89231        1.73057        1.13675
O         -0.45020        2.33317        0.02727
C          0.44964        3.40766        0.10552
H          0.72244        3.65129       -0.92799
H          1.35678        3.12584        0.66281
H         -0.01962        4.28802        0.57612
C         -0.65181        2.22661        2.42162
H         -0.04151        3.11563        2.57024
C         -2.01830        0.44871        3.33373
H         -2.46356       -0.03274        4.20234
C         -1.22230        1.57624        3.50600
H         -1.04645        1.95683        4.51462
C         -3.54083        2.19453       -0.56068
C         -3.24659        3.53315       -0.82073
H         -2.54762        3.76769       -1.62534
C         -4.42689        1.85331        0.46160
H         -4.65703        0.80393        0.65250
C         -3.83000        4.53461       -0.05225
H         -3.60876        5.58568       -0.24444
C         -5.00726        2.85327        1.23686
H         -5.69656        2.60036        2.04378
C         -4.70311        4.18842        0.97937
Cl        -5.41913        5.43377        1.95060
C         -4.00987       -1.66128       -0.83116
C         -4.33016       -2.88759       -0.23911
H         -3.52778       -3.47027        0.21540
C         -5.01247       -0.91742       -1.45999
H         -4.76176        0.01571       -1.96174
C         -5.63894       -3.35373       -0.24082
H         -5.89003       -4.31161        0.21813
C         -6.32715       -1.37900       -1.45225
H         -7.11355       -0.79804       -1.93683
C         -6.64090       -2.58838       -0.83824
Cl        -8.27903       -3.15709       -0.82944
