92
Cat493.ts34.5.log	Energy: -1931895.1781744
C         -2.34293       -2.30177       -2.58934
H         -2.49802       -3.37919       -2.49476
H         -3.25841       -1.71412       -2.47779
C         -1.31446       -1.83743       -3.45709
H         -0.65573       -2.55533       -3.95197
H         -1.49442       -0.93770       -4.05485
H         -0.42578       -0.70597       -2.54210
Rh        -0.70798       -1.72845       -1.31220
O         -0.76053        1.24485        0.10536
C         -3.06344        0.87911       -1.45816
C         -2.87658       -0.21128        1.20940
O          1.60469       -0.67980        0.96134
C          2.65666       -2.49359       -0.75381
C          2.05726        0.32593       -1.46549
P          1.37292       -1.17177       -0.62847
P         -1.84259        0.03013       -0.32196
C         -0.69154       -3.46346       -0.56436
O         -0.68455       -4.53442       -0.13247
C         -0.87532        2.44475        0.74790
C         -1.42968        2.57929        2.02442
H         -1.82527        1.70980        2.54393
C         -0.30245        3.55623        0.12421
H          0.14524        3.43002       -0.86220
C         -1.44588        3.82835        2.64272
H         -1.88600        3.92288        3.63859
C         -0.31907        4.79709        0.75254
H          0.11963        5.65997        0.24610
C         -0.89961        4.94387        2.01194
H         -0.91749        5.91993        2.50095
H         -2.78880        0.54947       -2.47020
H         -4.04219        0.42597       -1.23500
C         -3.11496        2.37293       -1.41535
C         -3.78966        3.06525       -0.40134
H         -4.33773        2.51041        0.36390
C         -2.44211        3.12088       -2.38857
H         -1.91756        2.60050       -3.19436
C         -3.76642        4.45388       -0.33541
H         -4.27142        4.99769        0.46421
C         -2.41688        4.51169       -2.34606
H         -1.88882        5.09975       -3.09878
C         -3.06819        5.16077       -1.30627
F         -3.02369        6.49054       -1.23761
H         -2.16651       -0.47325        2.00916
H         -3.38016        0.72727        1.47979
C         -3.86958       -1.31081        0.99014
C         -5.19402       -1.03610        0.62787
H         -5.53652        0.00106        0.56939
C         -3.47240       -2.65117        1.08468
H         -2.44890       -2.88110        1.38157
C         -6.09680       -2.06111        0.35308
H         -7.13178       -1.85494        0.07502
C         -4.35898       -3.68737        0.81222
H         -4.05053       -4.73206        0.87989
C         -5.66197       -3.37751        0.44140
F         -6.51714       -4.36380        0.17505
C          0.82722       -0.96899        2.03497
C          0.55936        0.06714        2.93298
H          0.95534        1.06116        2.72342
C          0.34413       -2.25436        2.29339
H          0.58451       -3.07630        1.62097
C         -0.21088       -0.17756        4.06656
H         -0.41577        0.64154        4.76042
C         -0.43574       -2.48676        3.42528
H         -0.81354       -3.49440        3.61409
C         -0.72541       -1.45126        4.31273
H         -1.33692       -1.63885        5.19762
H          2.29835       -3.28080       -0.06836
H          2.52787       -2.90547       -1.76668
C          4.09252       -2.14526       -0.49380
C          5.04370       -2.30375       -1.50743
H          4.73278       -2.69613       -2.47964
C          4.52085       -1.65644        0.74887
H          3.79661       -1.51794        1.55229
C          6.38091       -1.96773       -1.30738
H          7.12713       -2.08634       -2.09504
C          5.84941       -1.30909        0.96235
H          6.18727       -0.90761        1.91915
C          6.76371       -1.46236       -0.07327
F          8.03486       -1.11259        0.12182
H          2.27900       -0.00815       -2.49206
H          1.17494        0.98047       -1.52456
C          3.21624        1.05259       -0.85237
C          3.03253        1.82998        0.29858
H          2.03695        1.90677        0.73681
C          4.49325        0.99940       -1.41956
H          4.65767        0.41092       -2.32441
C          4.09639        2.50470        0.88814
H          3.96095        3.11132        1.78537
C          5.56979        1.66693       -0.84278
H          6.57264        1.61327       -1.26973
C          5.35757        2.40609        0.31324
F          6.38369        3.04311        0.87861
