96
Cat412.ts34.5.log	Energy: -1542882.6239966
C         -1.08421        0.65347       -3.67578
H         -0.94253       -0.09557       -4.45925
H         -2.12896        0.90507       -3.47127
C         -0.10392        1.68257       -3.54176
H          0.80084        1.64487       -4.15468
H         -0.44619        2.70620       -3.34859
H          0.13996        1.73709       -1.95560
Rh         0.09549        0.11653       -1.96344
C         -1.73489        1.67214        0.65978
O         -3.14135        0.02375       -0.78151
O         -1.34297       -0.98618        0.80290
C          2.01937       -0.57367        0.93749
O          3.23731       -0.55611       -1.48231
O          2.60243        1.63670       -0.28701
P          1.97632        0.17802       -0.72412
P         -1.54555        0.16445       -0.35614
C          0.42290       -1.65932       -2.56052
O          0.61144       -2.74994       -2.87452
C         -0.70197        1.99148        1.55316
H          0.15291        1.31974        1.66549
C         -2.81955        2.53816        0.52118
H         -3.62256        2.26892       -0.16926
C         -0.77866        3.15713        2.30441
H          0.01773        3.40218        3.01152
C         -2.89871        3.72623        1.26163
C         -4.06725        4.65230        1.08448
H         -4.05273        5.12092        0.08700
H         -5.02221        4.11150        1.17155
H         -4.06232        5.45775        1.83222
C         -1.86726        4.01960        2.15763
H         -1.91567        4.93722        2.75063
C         -3.53214       -0.86508       -1.81728
H         -4.19506       -0.29670       -2.49257
H         -2.64472       -1.17247       -2.39678
C         -4.25874       -2.07798       -1.27436
H         -4.51823       -2.72586       -2.13041
H         -3.56017       -2.66217       -0.65080
C         -5.51317       -1.73722       -0.48279
H         -6.19990       -1.16274       -1.12976
H         -5.23806       -1.05302        0.33729
C         -6.22936       -2.95852        0.06946
H         -6.53220       -3.64536       -0.73735
H         -5.58054       -3.52670        0.75538
H         -7.13603       -2.68035        0.62782
C         -1.99134       -1.00456        2.06665
H         -1.19965       -0.93746        2.83342
H         -2.64100       -0.12144        2.18194
C         -2.79646       -2.27429        2.24679
H         -3.25903       -2.24077        3.24935
H         -3.62980       -2.27008        1.52641
C         -1.98648       -3.55259        2.09098
H         -1.19241       -3.56946        2.85756
H         -1.46616       -3.52266        1.11936
C         -2.83069       -4.81209        2.19172
H         -3.35592       -4.87005        3.15903
H         -3.59744       -4.84194        1.40064
H         -2.21868       -5.72121        2.09050
C          1.52280       -1.87484        1.06561
H          1.07029       -2.37436        0.20641
C          2.56334        0.07494        2.04947
H          2.94509        1.09171        1.93249
C          1.61227       -2.52567        2.29119
H          1.24559       -3.54968        2.38987
C          2.63318       -0.56011        3.29504
C          3.18010        0.16162        4.49265
H          3.94088        0.90116        4.20387
H          2.38013        0.70570        5.02253
H          3.63334       -0.53475        5.21296
C          2.16257       -1.87419        3.39493
H          2.22450       -2.39459        4.35496
C          4.55036       -0.63150       -0.93616
H          5.22876       -0.55467       -1.80147
H          4.74052        0.24102       -0.28785
C          4.80570       -1.92565       -0.18423
H          5.88063       -1.95262        0.06969
H          4.26766       -1.90952        0.77679
C          4.41903       -3.17638       -0.95957
H          5.01213       -3.23258       -1.88973
H          3.36995       -3.08199       -1.28321
C          4.59651       -4.44872       -0.14818
H          5.64312       -4.58394        0.17046
H          3.97699       -4.42185        0.76318
H          4.30557       -5.34073       -0.72341
C          2.68594        2.69937       -1.22553
H          3.74864        2.98952       -1.29446
H          2.37153        2.34854       -2.22247
C          1.83933        3.87435       -0.78718
H          1.90497        4.64834       -1.57283
H          0.78313        3.55435       -0.74552
C          2.24510        4.46502        0.55500
H          3.32012        4.71941        0.53161
H          2.13356        3.68766        1.32888
C          1.43236        5.69298        0.93010
H          1.56909        6.50246        0.19472
H          0.35744        5.45732        0.96823
H          1.72335        6.08788        1.91570
