100
Cat404.ts34.5.log	Energy: -1826604.7036913
C          1.36823       -3.24217       -1.19965
H          1.43329       -3.46184       -2.26785
H          2.33474       -3.20942       -0.68925
C          0.20611       -3.64904       -0.49120
H         -0.63001       -4.10274       -1.02832
H          0.30523       -4.02074        0.53516
H         -0.25523       -2.31217        0.35532
Rh         0.17247       -1.46167       -0.95418
C          1.36805       -0.10982        2.16201
O          3.21529       -0.45824        0.32396
O          1.46831        1.41218       -0.07640
C         -2.70639        0.29646       -2.10885
O         -3.04542       -1.30441       -0.06571
O         -1.69344        0.85474        0.37048
P         -1.78684       -0.41377       -0.70474
P          1.55738       -0.19650        0.34481
C          0.39278       -0.97994       -2.78437
O          0.54737       -0.66724       -3.87916
C          0.61863        0.94457        2.69825
H          0.21071        1.70427        2.03282
C          1.84477       -1.13368        3.00702
C          2.57544       -2.33921        2.48940
H          3.62209       -2.10034        2.25130
H          2.12012       -2.71975        1.56336
H          2.56528       -3.14716        3.23427
C          0.38182        1.03314        4.06593
H         -0.20186        1.86674        4.46249
C          1.61372       -1.01187        4.38184
H          1.99344       -1.79173        5.04793
C          0.90048        0.05867        4.91472
H          0.73501        0.11993        5.99312
C          3.88115       -0.76719       -0.83049
C          3.59915       -0.12324       -2.03330
H          2.83467        0.65546       -2.05846
C          4.87416       -1.74658       -0.76438
H          5.08210       -2.23326        0.19010
C          4.28979       -0.46645       -3.20225
C          3.95603        0.22277       -4.49284
H          2.90082        0.05817       -4.76088
H          4.10319        1.31124       -4.40933
H          4.58213       -0.14215       -5.31873
C          5.57048       -2.08023       -1.92051
H          6.34930       -2.84558       -1.87890
C          5.27707       -1.45334       -3.13217
H          5.82609       -1.73024       -4.03562
C          2.12980        2.50067        0.42557
C          3.22919        2.41834        1.27782
H          3.61765        1.44266        1.56859
C          1.63644        3.74614        0.02473
H          0.78507        3.78208       -0.65605
C          3.83825        3.58438        1.75831
C          5.01221        3.47481        2.68769
H          4.73318        2.94804        3.61415
H          5.83160        2.90208        2.22551
H          5.40269        4.46399        2.96413
C          2.24442        4.90279        0.49776
H          1.86148        5.87786        0.18683
C          3.33548        4.82678        1.36344
H          3.80500        5.74175        1.73298
C         -3.86329       -0.34834       -2.56723
H         -4.24056       -1.21245       -2.01946
C         -2.19505        1.41255       -2.80298
C         -0.98521        2.17443       -2.34844
H         -0.25695        1.55633       -1.80680
H         -1.29117        2.98144       -1.66242
H         -0.47491        2.63784       -3.20445
C         -4.52984        0.10523       -3.69951
H         -5.43228       -0.40579       -4.04262
C         -2.88237        1.84540       -3.94332
H         -2.49424        2.70877       -4.49047
C         -4.03451        1.20844       -4.39128
H         -4.54436        1.57231       -5.28662
C         -2.86453       -2.31234        0.83999
C         -2.22635       -2.07792        2.05911
H         -1.85354       -1.07584        2.28474
C         -3.34892       -3.57739        0.51712
H         -3.83550       -3.73129       -0.44751
C         -2.06405       -3.11820        2.97954
C         -1.36258       -2.88293        4.28429
H         -1.27258       -1.81190        4.50739
H         -1.89035       -3.37367        5.11587
H         -0.33963       -3.29221        4.25747
C         -3.19352       -4.61348        1.43458
H         -3.57273       -5.60954        1.19362
C         -2.55581       -4.38860        2.65191
H         -2.44052       -5.20941        3.36474
C         -2.62446        1.82539        0.62184
C         -3.99673        1.59180        0.56738
H         -4.36259        0.59607        0.31561
C         -2.13176        3.08754        0.96757
H         -1.05286        3.25028        0.99847
C         -4.90115        2.62613        0.83882
C         -6.37639        2.36231        0.75074
H         -6.66210        2.07097       -0.27266
H         -6.67350        1.53632        1.41588
H         -6.96304        3.24934        1.02712
C         -3.02926        4.11028        1.25084
H         -2.65001        5.09839        1.52256
C         -4.40457        3.88627        1.18241
H         -5.10141        4.69962        1.39974
