106
Cat449.ts34.5.log	Energy: -1875798.0002935
C         -0.85616        0.11389       -3.29212
H         -0.38824       -0.58148       -3.99386
H         -1.95025        0.12247       -3.30280
C         -0.14842        1.28192       -2.91688
H          0.87260        1.44148       -3.27730
H         -0.70101        2.21345       -2.76602
H         -0.13178        1.33068       -1.29103
Rh        -0.04962       -0.28608       -1.32623
C         -2.52084        1.37828        0.62142
C         -3.55744       -0.89204       -1.05730
C         -2.14318       -1.47767        1.35077
C          2.50393       -0.47568        1.29734
C          3.47535       -0.67555       -1.36554
C          2.48485        1.89958       -0.58054
P          2.07518        0.09756       -0.41513
P         -2.09672       -0.27496       -0.06490
C          0.17472       -2.11717       -1.64222
O          0.28785       -3.24521       -1.86353
C         -2.31899        1.74675        1.96603
O         -1.87067        0.78432        2.78656
C         -1.56530        1.06386        4.12071
H         -0.78148        1.83728        4.20442
H         -2.45458        1.38939        4.68841
H         -1.19043        0.12522        4.54810
C         -2.83364        2.40546       -0.29197
O         -2.92448        2.01690       -1.57944
C         -3.29294        2.94115       -2.56356
H         -3.30497        2.39270       -3.51352
H         -2.56940        3.77149       -2.63689
H         -4.29716        3.35904       -2.37359
C         -3.04280        3.72285        0.12385
H         -3.30541        4.50041       -0.59204
C         -2.54647        3.06121        2.39830
H         -2.41473        3.32744        3.44624
C         -2.91216        4.03235        1.47544
H         -3.08255        5.05774        1.81126
C         -3.21871       -2.09455       -1.70380
H         -2.22195       -2.50874       -1.54899
C         -4.85870       -0.37572       -1.25199
C         -5.44751        0.83752       -0.58515
H         -5.50019        1.68706       -1.28324
H         -4.88795        1.16740        0.29233
H         -6.47834        0.62138       -0.26692
C         -4.09714       -2.77282       -2.53631
H         -3.78507       -3.70603       -3.01050
C         -5.72363       -1.06589       -2.11946
H         -6.72784       -0.65877       -2.27173
C         -5.36426       -2.24119       -2.76315
H         -6.07244       -2.74429       -3.42603
C         -0.92984       -2.11967        1.61067
H         -0.06970       -1.85135        0.99383
C         -3.26895       -1.78549        2.14900
C         -4.59545       -1.11023        1.99539
H         -5.09090       -1.40479        1.05862
H         -4.48441       -0.01697        1.97545
H         -5.26218       -1.36961        2.82941
C         -0.80411       -3.06054        2.63083
H          0.16373       -3.52633        2.82364
C         -3.12541       -2.74343        3.15801
H         -3.99551       -2.98355        3.77581
C         -1.91219       -3.38195        3.40479
H         -1.83665       -4.12132        4.20628
C          2.84970        0.31916        2.40720
O          3.02551        1.63216        2.17729
C          3.35164        2.50004        3.22074
H          3.41917        3.50101        2.77432
H          2.57544        2.50754        4.00657
H          4.32252        2.24509        3.68043
C          2.48564       -1.87403        1.48781
O          2.21733       -2.60356        0.39193
C          2.34530       -3.99967        0.41897
H          2.14539       -4.34283       -0.60203
H          1.60904       -4.46286        1.09717
H          3.36300       -4.30039        0.71962
C          2.74735       -2.45287        2.73496
H          2.73655       -3.53498        2.85785
C          3.07141       -0.24816        3.66921
H          3.32260        0.38125        4.52189
C          3.01606       -1.62836        3.82004
H          3.20460       -2.07123        4.80075
C          3.14666       -1.24578       -2.59941
H          2.10506       -1.18894       -2.92458
C          4.82246       -0.69540       -0.93414
C          5.31343       -0.04654        0.32897
H          5.18431       -0.70962        1.19894
H          4.77975        0.88674        0.55241
H          6.38522        0.18296        0.24090
C          4.10048       -1.86920       -3.39839
H          3.80893       -2.30764       -4.35565
C          5.76523       -1.33623       -1.74940
H          6.80824       -1.35709       -1.42034
C          5.41986       -1.92671       -2.96158
H          6.18606       -2.41611       -3.56819
C          3.46464        2.28554       -1.50550
H          4.05084        1.52264       -2.01905
C          1.71676        2.89973        0.05378
C          0.61095        2.61196        1.02202
H          0.78001        3.13874        1.97365
H          0.48255        1.54346        1.23093
H         -0.34181        2.98131        0.61703
C          3.71103        3.62648       -1.79291
H          4.48473        3.89076       -2.51768
C          1.98337        4.24009       -0.24530
H          1.38584        5.01055        0.25179
C          2.96899        4.61389       -1.15475
H          3.14913        5.67071       -1.36698
