94
Cat447.ts34.5.log	Energy: -2930496.0303713
C         -0.63559       -3.43751       -0.91447
H         -0.36051       -4.24831       -0.23456
H         -1.70037       -3.36757       -1.15164
C          0.31603       -3.00013       -1.86491
H          1.31910       -3.43445       -1.88812
H         -0.04021       -2.67203       -2.84553
H          0.42627       -1.31065       -1.68631
Rh         0.16169       -1.59278       -0.11811
C         -2.05188        0.55734       -1.97514
C         -3.40267       -1.25999       -0.22288
C         -2.22620        0.89133        0.96074
C          2.20764        0.38226        1.95705
C          3.59165       -0.97647       -0.21149
C          2.10043        1.33185       -0.80641
P          1.96482       -0.19223        0.22135
P         -1.81578       -0.31635       -0.37067
C          0.25651       -2.31211        1.61999
O          0.31919       -2.76647        2.67900
C         -1.84156        1.93284       -2.19945
O         -1.49526        2.67882       -1.13780
C         -1.42896        4.07177       -1.26728
H         -1.30573        4.47023       -0.25332
H         -0.57205        4.38485       -1.88771
H         -2.35835        4.48613       -1.69376
C         -2.29964       -0.25453       -3.10504
O         -2.38486       -1.57660       -2.85999
C         -2.83059       -2.45031       -3.86050
H         -2.88491       -3.44448       -3.39995
H         -2.13042       -2.48915       -4.71268
H         -3.83167       -2.16627       -4.22650
C         -2.43826        0.28618       -4.38627
H         -2.65158       -0.35288       -5.24195
C         -1.97358        2.48145       -3.48430
H         -1.81623        3.54641       -3.64789
C         -2.27851        1.65705       -4.55907
H         -2.37826        2.08967       -5.55717
C         -3.44348       -2.31244        0.69591
H         -2.53351       -2.58377        1.23750
C         -4.57268       -0.92865       -0.91447
H         -4.56593       -0.10878       -1.63743
C         -4.61971       -3.02195        0.92532
H         -4.64741       -3.84234        1.64424
C         -5.75369       -1.63319       -0.70328
H         -6.66478       -1.37663       -1.24674
C         -5.77018       -2.67959        0.21868
Cl        -7.23762       -3.56382        0.48330
C         -1.51600        0.79729        2.15612
H         -0.69356        0.08291        2.23075
C         -3.28716        1.80174        0.87536
H         -3.87607        1.87070       -0.04228
C         -1.83414        1.60395        3.24785
H         -1.27130        1.52547        4.17942
C         -3.60219        2.63152        1.94378
H         -4.41781        3.35333        1.87505
C         -2.86410        2.52984        3.12585
Cl        -3.22422        3.58977        4.45194
C          1.66051        1.58455        2.45216
O          1.00855        2.35777        1.56953
C          0.63931        3.66076        1.92410
H          0.30934        4.14563        0.99892
H         -0.18992        3.66709        2.65087
H          1.49315        4.22501        2.33630
C          2.78883       -0.50324        2.89130
O          3.19763       -1.68078        2.39956
C          3.70703       -2.66992        3.24883
H          3.95998       -3.52194        2.60515
H          2.95465       -2.98628        3.99037
H          4.62044       -2.33205        3.76720
C          2.90237       -0.16553        4.24449
H          3.36043       -0.85570        4.95124
C          1.77935        1.93156        3.80474
H          1.36204        2.86777        4.17270
C          2.40371        1.05471        4.68309
H          2.48689        1.32118        5.73931
C          4.78024       -0.25370       -0.34139
H          4.79211        0.82688       -0.19369
C          3.62336       -2.35777       -0.42061
H          2.69158       -2.91559       -0.29232
C          5.97487       -0.89133       -0.66763
H          6.90199       -0.32484       -0.76892
C          4.80569       -3.01136       -0.75002
H          4.82646       -4.09061       -0.91135
C          5.98012       -2.26953       -0.87136
Cl         7.46174       -3.06980       -1.28161
C          2.87677        2.44129       -0.44356
H          3.41502        2.44438        0.50730
C          1.41586        1.36897       -2.02063
H          0.78995        0.52050       -2.30593
C          2.94361        3.56706       -1.25567
H          3.53034        4.43861       -0.96054
C          1.48334        2.48181       -2.85611
H          0.93034        2.50404       -3.79597
C          2.23329        3.58206       -2.45716
Cl         2.25001        5.00947       -3.44474
