94
Cat444.ts34.5.log	Energy: -1777203.4399968
C         -1.25210       -0.74431       -3.10669
H         -0.88909       -1.59598       -3.68853
H         -2.32848       -0.74219       -2.91147
C         -0.57116        0.49469       -3.22912
H          0.32094        0.56757       -3.85813
H         -1.16362        1.41699       -3.19795
H         -0.24026        0.97754       -1.66787
Rh        -0.01132       -0.58400       -1.34347
C         -2.84632        1.24072       -0.51784
C         -3.11723       -1.58102        0.14656
C         -1.76625        0.03982        1.88450
C          2.30589       -0.51052        1.34336
C          3.49988       -0.48215       -1.26759
C          2.42729        1.86257       -0.37032
P          1.97155        0.06982       -0.36971
P         -1.86905       -0.21076        0.06107
C          0.47373       -2.40479       -1.40339
O          0.73712       -3.52522       -1.48923
C         -2.31544        2.52767       -0.28145
O         -1.14747        2.55910        0.38296
C         -0.49801        3.78302        0.58900
H          0.49766        3.54050        0.97608
H         -0.37241        4.34009       -0.35316
H         -1.04533        4.41292        1.31294
C         -3.99320        1.15129       -1.33293
O         -4.38448       -0.08469       -1.68925
C         -5.61655       -0.28977       -2.31782
H         -5.74181       -1.37752       -2.39280
H         -5.64003        0.14760       -3.33138
H         -6.44907        0.12740       -1.72572
C         -4.65972        2.30261       -1.77468
H         -5.55993        2.22058       -2.38248
C         -2.97339        3.68239       -0.72224
H         -2.57182        4.67047       -0.50234
C         -4.14973        3.55415       -1.45277
H         -4.67028        4.45146       -1.79561
C         -2.93093       -2.72769       -0.62538
C         -4.23308       -1.50457        0.98962
C         -4.96771       -3.68568        0.25368
C         -5.15500       -2.54515        1.03777
C         -3.85104       -3.77568       -0.57357
H         -2.05837       -2.78932       -1.27782
H         -3.68845       -4.66840       -1.18279
H         -5.68831       -4.50635        0.29738
H         -6.02334       -2.47038        1.69757
H         -4.38395       -0.62059        1.61368
C         -2.49222        0.99445        2.60469
C         -1.01098       -0.90835        2.58315
C         -1.75399        0.01350        4.68928
C         -1.01259       -0.92853        3.97583
C         -2.48377        0.98178        3.99891
H         -3.09212        1.73697        2.07343
H         -3.06352        1.72702        4.55002
H         -1.75998       -0.00401        5.78205
H         -0.42354       -1.68196        4.50313
H         -0.42474       -1.64294        2.02293
C          1.98512        0.22323        2.50139
O          1.38170        1.41061        2.32164
C          1.02278        2.16753        3.44630
H          0.52683        3.06895        3.07071
H          0.31659        1.61906        4.08860
H          1.90828        2.46596        4.03427
C          2.76073       -1.83678        1.51328
O          2.88508       -2.54927        0.38531
C          3.39314       -3.85277        0.41068
H          3.38948       -4.20017       -0.62921
H          2.75733       -4.52429        1.01222
H          4.42459       -3.87500        0.80198
C          3.03669       -2.35850        2.78157
H          3.41287       -3.37419        2.89576
C          2.27797       -0.28567        3.77529
H          2.05558        0.29657        4.66746
C          2.80925       -1.56265        3.89911
H          3.02816       -1.95787        4.89401
C          3.37730       -0.93126       -2.58212
C          4.77271       -0.39682       -0.69176
C          5.77155       -1.21919       -2.73273
C          5.90011       -0.76893       -1.41690
C          4.50854       -1.29625       -3.31365
H          2.37487       -1.00410       -3.01477
H          4.39808       -1.64881       -4.34228
H          6.65815       -1.50928       -3.30208
H          6.88817       -0.70682       -0.95352
H          4.88347       -0.05224        0.33944
C          1.95331        2.65542       -1.41805
C          3.33365        2.42415        0.53771
C          3.23813        4.54129       -0.62736
C          3.72579        3.75447        0.41725
C          2.35844        3.98317       -1.55124
H          1.25463        2.22338       -2.13651
H          1.97773        4.58383       -2.38120
H          3.55117        5.58388       -0.72293
H          4.42473        4.17906        1.14239
H          3.73583        1.81935        1.35260
