94
Cat442.ts34.5.log	Energy: -1682251.3660434
C         -1.02405       -1.58835       -3.31966
H         -0.55680       -2.48815       -3.72847
H         -2.08892       -1.66928       -3.08763
C         -0.50290       -0.32465       -3.71000
H          0.37607       -0.27456       -4.35860
H         -1.20579        0.50182       -3.85977
H         -0.30714        0.51016       -2.26992
Rh         0.15229       -0.90894       -1.64885
C         -1.98772        0.91303        0.66082
O         -3.11181       -0.74172       -1.13505
O         -2.01331       -1.75689        0.88645
C          1.71707        0.42714        1.22029
O          3.26331       -0.66563       -0.72914
O          2.31351        1.65667       -1.04399
P          1.84070        0.14838       -0.59776
P         -1.69652       -0.65035       -0.29152
C          1.04590       -2.57052       -1.48499
O          1.58037       -3.58455       -1.36419
C         -1.88249        1.06593        2.05985
O         -1.46908        0.01400        2.78475
C         -1.60148        0.04569        4.17629
H         -1.28106       -0.93837        4.54062
H         -0.95656        0.81226        4.63618
H         -2.64896        0.21845        4.47953
C         -2.29888        2.06417       -0.09731
O         -2.30699        1.90572       -1.43652
C         -2.77953        2.93295       -2.25964
H         -2.75416        2.54387       -3.28539
H         -2.14190        3.83214       -2.20520
H         -3.81750        3.21055       -2.00759
C         -2.59865        3.29002        0.50589
H         -2.86021        4.16031       -0.09401
C         -2.19873        2.29176        2.67010
H         -2.14996        2.39560        3.75269
C         -2.56374        3.38106        1.89212
H         -2.81144        4.32899        2.37637
C         -4.38829       -0.77262       -0.49499
H         -4.24298       -0.70627        0.59751
C         -5.04355       -2.10054       -0.81999
H         -4.41861       -2.92893       -0.46156
H         -5.16886       -2.20757       -1.90884
H         -6.03421       -2.17668       -0.34619
C         -5.20917        0.41302       -0.96502
H         -4.76902        1.35933       -0.62357
H         -5.26005        0.42498       -2.06480
H         -6.23462        0.35202       -0.56973
C         -1.23124       -2.93986        1.02216
H         -0.19246       -2.69424        0.74642
C         -1.73998       -4.02169        0.08954
H         -1.72860       -3.66105       -0.94951
H         -2.76891       -4.31443        0.35171
H         -1.09821       -4.91394        0.14616
C         -1.27884       -3.33881        2.48209
H         -2.32067       -3.48345        2.80806
H         -0.73250       -4.28051        2.64298
H         -0.82677       -2.55361        3.10283
C          1.41268        1.65740        1.83814
O          1.05415        2.68061        1.04887
C          0.92034        3.96233        1.59150
H          0.65798        4.62421        0.75652
H          0.11188        4.00923        2.33905
H          1.86383        4.31117        2.04693
C          1.89201       -0.70000        2.05223
O          2.02889       -1.87504        1.41557
C          2.39524       -3.02930        2.11707
H          2.47949       -3.82419        1.36553
H          1.63375       -3.31571        2.86162
H          3.36693       -2.90192        2.62445
C          1.93497       -0.58455        3.44568
H          2.11231       -1.45654        4.07374
C          1.46888        1.78205        3.23624
H          1.28011        2.74309        3.71199
C          1.75010        0.66910        4.01748
H          1.80102        0.77636        5.10404
C          4.52761       -0.12318       -0.34720
H          4.40541        0.95405       -0.14047
C          5.46007       -0.29828       -1.53068
H          5.05146        0.20082       -2.42025
H          5.57512       -1.36741       -1.76618
H          6.45355        0.12377       -1.31561
C          5.04680       -0.82238        0.89562
H          4.41553       -0.61136        1.76900
H          5.07564       -1.91054        0.73232
H          6.06710       -0.47890        1.12532
C          2.01979        2.20249       -2.32533
H          1.70039        1.38057       -2.99104
C          3.28812        2.82934       -2.86741
H          4.08409        2.07871       -2.97013
H          3.64520        3.61884       -2.18795
H          3.10562        3.27797       -3.85552
C          0.88223        3.19478       -2.19083
H          0.00717        2.69881       -1.75065
H          1.17844        4.02740       -1.53511
H          0.60505        3.60340       -3.17506
