96
Cat406.ts34.5.log	Energy: -1886825.7697928
C         -0.74773        3.04980       -1.75220
H         -0.81489        3.09921       -2.84258
H         -1.67712        3.31821       -1.23783
C          0.49662        3.38228       -1.13936
H          1.37292        3.57916       -1.76184
H          0.49311        3.98570       -0.22415
H          0.67837        2.20183       -0.02502
Rh         0.13278        1.19181       -1.16730
C         -0.83558        0.06837        2.00353
C         -3.02814        1.46399        0.62513
C         -2.29555       -1.20197       -0.17980
C          1.64459       -1.91000       -0.22329
C          3.23112       -0.30236       -1.92628
C          2.91707        0.54873        0.87326
P          1.95019       -0.10845       -0.57032
P         -1.51290        0.40735        0.32034
C         -0.10399        0.43315       -2.87765
O         -0.25934       -0.03101       -3.92391
C         -0.41824       -1.23503        2.31949
H         -0.61292       -2.05618        1.62953
C         -0.54660        1.10926        2.91849
C         -0.90021        2.54383        2.65208
H         -1.97364        2.73634        2.79485
H         -0.64384        2.82623        1.61919
H         -0.35569        3.21263        3.33259
C          0.25476       -1.52404        3.50313
H          0.56374       -2.55161        3.70825
C          0.12038        0.79427        4.10876
H          0.33396        1.60132        4.81574
C          0.52445       -0.50385        4.41018
H          1.04720       -0.71301        5.34624
H         -3.42427        1.25387        1.62888
H         -2.68224        2.50867        0.62083
C         -4.12001        1.28224       -0.39271
C         -3.85711        1.27995       -1.76907
H         -2.82974        1.40665       -2.11976
C         -5.44316        1.10878        0.02919
H         -5.66652        1.08615        1.09880
C         -4.87979        1.09320       -2.69584
H         -4.68065        1.08218       -3.76905
C         -6.47819        0.93115       -0.88330
H         -7.50926        0.78471       -0.55712
C         -6.18061        0.92041       -2.23970
F         -7.16374        0.73777       -3.12241
H         -2.42860       -1.10440       -1.26678
H         -1.51527       -1.96826       -0.06260
C         -3.59286       -1.63374        0.44343
C         -4.62763       -2.08370       -0.38670
H         -4.47652       -2.09549       -1.46915
C         -3.82469       -1.60269        1.82462
H         -3.03984       -1.25863        2.50056
C         -5.85609       -2.48255        0.12930
H         -6.66657       -2.82036       -0.51885
C         -5.05071       -1.99286        2.35888
H         -5.23819       -1.96654        3.43395
C         -6.05433       -2.42722        1.50256
F         -7.23173       -2.79583        2.00957
C          0.69125       -2.44541       -1.10388
H          0.21034       -1.77567       -1.81913
C          2.26735       -2.77801        0.70574
C          3.35560       -2.38748        1.66390
H          3.00762       -1.66521        2.41540
H          4.21762       -1.95077        1.14020
H          3.71575       -3.27441        2.20174
C          0.32508       -3.78736       -1.08480
H         -0.41976       -4.16010       -1.79144
C          1.85759       -4.11964        0.73030
H          2.32645       -4.78767        1.45769
C          0.90331       -4.63111       -0.14258
H          0.62191       -5.68541       -0.08974
H          2.65964       -0.70634       -2.77555
H          3.53136        0.71536       -2.21415
C          4.39743       -1.17433       -1.58665
C          5.56509       -0.64693       -1.01704
H          5.66181        0.43253       -0.87725
C          4.32596       -2.56293       -1.77248
H          3.43009       -2.99922       -2.21995
C          6.61892       -1.46952       -0.62507
H          7.53000       -1.06194       -0.18363
C          5.36821       -3.39952       -1.38643
H          5.31362       -4.48047       -1.52639
C          6.50202       -2.84153       -0.80821
F          7.50214       -3.63733       -0.43214
H          2.35222        0.23204        1.76180
H          3.89667        0.05328        0.90437
C          3.08318        2.03943        0.90106
C          3.82283        2.73128       -0.06666
H          4.30072        2.18700       -0.88245
C          2.49424        2.78448        1.92849
H          1.92381        2.26024        2.69724
C          3.95961        4.11572       -0.02436
H          4.53183        4.65719       -0.77969
C          2.61791        4.17037        1.98882
H          2.15734        4.75256        2.78917
C          3.34902        4.82193        1.00470
F          3.47151        6.14745        1.04951
