88
Cat423.ts34.5.log	Energy: -1727992.1205885
C          1.27885       -3.22053       -2.08475
H          1.05301       -3.49675       -3.11773
H          2.33239       -3.00017       -1.88664
C          0.48966       -3.77749       -1.04238
H         -0.37960       -4.39556       -1.28194
H          0.97742       -4.04994       -0.09997
H          0.14380       -2.44077       -0.07991
Rh        -0.07725       -1.66058       -1.47167
C          3.00232       -0.97088       -0.01429
O          2.13426        0.94391       -1.74876
O          0.88795        0.67484        0.53727
C         -2.16265        1.07337       -0.67222
O         -3.30941       -1.38978       -0.78018
O         -1.83906       -0.67608        1.21236
P         -1.82306       -0.70069       -0.45427
P          1.50122       -0.21221       -0.72260
C         -0.72623       -1.42519       -3.25225
O         -1.11328       -1.28083       -4.32424
C          2.89202       -1.64081        1.21252
H          1.96377       -1.58653        1.78755
C          4.17669       -1.08398       -0.76122
H          4.23576       -0.59805       -1.73895
C          3.97103       -2.37468        1.69073
H          3.89088       -2.89174        2.65007
C          5.27058       -1.82043       -0.28786
C          6.53831       -1.89834       -1.08814
H          6.32822       -2.01489       -2.16175
H          7.13489       -0.97815       -0.97205
H          7.16708       -2.74113       -0.76832
C          5.15095       -2.45988        0.94998
H          5.99109       -3.04474        1.33438
C          2.60513        2.17754       -1.37339
C          3.97794        2.41939       -1.32784
H          4.67335        1.62093       -1.58772
C          1.69806        3.19087       -1.05994
H          0.62850        2.98087       -1.10622
C          4.44066        3.67431       -0.93624
H          5.51649        3.86145       -0.89573
C          2.17121        4.43656       -0.66021
H          1.45722        5.21899       -0.39311
C          3.54223        4.68246       -0.59072
H          3.90998        5.65999       -0.27147
C          1.37134        1.52838        1.48897
C          2.72027        1.68940        1.80510
H          3.48517        1.12568        1.27428
C          0.39482        2.26517        2.16492
H         -0.64841        2.11976        1.87828
C          3.08104        2.60482        2.79230
H          4.13991        2.73811        3.02635
C          0.77036        3.17051        3.15206
H          0.00170        3.74799        3.67177
C          2.11693        3.34723        3.47103
H          2.41320        4.06260        4.24110
C         -1.69505        1.70101       -1.83084
H         -1.09911        1.13790       -2.55261
C         -2.89086        1.80567        0.27014
H         -3.24593        1.30944        1.17601
C         -1.96881        3.05041       -2.03907
H         -1.60043        3.54623       -2.94012
C         -3.17107        3.16097        0.07161
C         -3.96810        3.92069        1.09163
H         -4.95946        3.46187        1.23260
H         -3.46696        3.91528        2.07267
H         -4.11571        4.96788        0.79324
C         -2.69960        3.77136       -1.09609
H         -2.90808        4.83111       -1.26755
C         -4.49127       -0.85413       -0.33312
C         -5.22544       -0.02431       -1.18039
H         -4.83703        0.18773       -2.17806
C         -4.95075       -1.14311        0.95214
H         -4.36228       -1.79652        1.59814
C         -6.42206        0.52863       -0.73194
H         -6.99516        1.18142       -1.39464
C         -6.14867       -0.58276        1.39172
H         -6.50881       -0.80650        2.39879
C         -6.88526        0.25625        0.55564
H         -7.82362        0.69263        0.90520
C         -1.30910       -1.65772        1.99440
C         -1.60591       -3.00669        1.78203
H         -2.26789       -3.29049        0.96141
C         -0.46188       -1.27354        3.03481
H         -0.24156       -0.21350        3.17098
C         -1.03712       -3.97107        2.61259
H         -1.26541       -5.02586        2.44196
C          0.09310       -2.24677        3.86231
H          0.75739       -1.94313        4.67508
C         -0.18555       -3.59802        3.65159
H          0.25618       -4.35830        4.29938
