80
Cat410.ts34.5.log	Energy: -1255535.8337770
C          1.07140       -3.60698        0.46548
H          0.56575       -4.45691       -0.00075
H          2.14274       -3.55430        0.24839
C          0.61495       -3.17580        1.74868
H         -0.26787       -3.64122        2.19669
H          1.36357       -2.89519        2.49963
H          0.53898       -1.54672        1.59156
Rh        -0.06523       -1.83006        0.12034
C          1.87019        1.05903        0.46952
C          3.35334       -1.13585       -0.66022
C          1.37136        0.45045       -2.32740
C         -1.88932        0.97232       -0.76119
C         -3.43020       -1.00628        0.65157
C         -1.44748        0.80645        2.10508
P         -1.71098       -0.26095        0.59393
P          1.63818       -0.37072       -0.66751
C         -1.09713       -2.65732       -1.21441
O         -1.74905       -3.17229       -2.02001
C          1.61507        2.39229        0.13331
H          1.33926        2.66474       -0.88477
C          2.21193        0.76895        1.80093
H          2.39001       -0.27195        2.08790
C          1.67807        3.39078        1.10758
H          1.45914        4.42570        0.83145
C          2.29162        1.75399        2.78454
C          2.66722        1.40723        4.19597
H          2.55702        0.33060        4.38823
H          3.71569        1.67705        4.40489
H          2.04277        1.94921        4.92216
C          2.00776        3.07928        2.42126
H          2.04531        3.86784        3.17791
H          3.32178       -1.69661        0.29181
C          3.47717       -2.15964       -1.78419
H          4.34210       -2.81939       -1.60909
H          2.57616       -2.78625       -1.86290
H          3.63430       -1.66708       -2.75573
C          4.55418       -0.19989       -0.60119
H          4.46252        0.53947        0.20721
H          5.47166       -0.78418       -0.41861
H          4.69816        0.34667       -1.54286
H          0.54457        1.14192       -2.08650
C          2.53733        1.25519       -2.89384
H          2.19015        1.87028       -3.74056
H          2.99801        1.92736       -2.15672
H          3.32551        0.59209       -3.28090
C          0.82579       -0.52301       -3.36635
H         -0.02288       -1.09535       -2.97212
H          0.48185        0.03538       -4.25162
H          1.59029       -1.23995       -3.70015
C         -2.30973        0.51014       -2.01813
H         -2.58797       -0.53675       -2.15600
C         -1.51849        2.31544       -0.63918
H         -1.18213        2.70593        0.32132
C         -2.35060        1.37223       -3.10795
H         -2.68107        0.99808       -4.07991
C         -1.53485        3.19135       -1.73253
C         -1.06900        4.61001       -1.57385
H         -1.22993        4.97474       -0.54906
H          0.01076        4.69672       -1.78530
H         -1.58931        5.28766       -2.26610
C         -1.95846        2.70357       -2.97138
H         -1.98413        3.37170       -3.83661
H         -3.41643       -1.59492       -0.28208
C         -3.54256       -2.00208        1.79953
H         -4.44048       -2.62788        1.67593
H         -2.66239       -2.66230        1.83125
H         -3.63050       -1.49079        2.77077
C         -4.61927       -0.05615        0.58269
H         -4.49853        0.70246       -0.20434
H         -5.53414       -0.62804        0.35663
H         -4.78975        0.46384        1.53478
H         -0.56732        1.39676        1.79344
C         -2.58562        1.76044        2.45874
H         -2.22054        2.52913        3.15928
H         -3.00956        2.27499        1.58588
H         -3.40351        1.22594        2.96407
C         -1.01954        0.01464        3.33524
H         -0.16746       -0.64199        3.11822
H         -0.71749        0.71185        4.13303
H         -1.83572       -0.60924        3.72876
