96
Cat428.ts34.5.log	Energy: -1637853.0403216
C          0.51253       -2.99895       -2.71579
H          0.17579       -3.00887       -3.75570
H          1.58894       -3.15344       -2.59197
C         -0.37320       -3.48884       -1.71473
H         -1.39023       -3.78509       -1.98459
H          0.03135       -4.07904       -0.88480
H         -0.29485       -2.33930       -0.53229
Rh        -0.29367       -1.26633       -1.74025
C          1.83643       -0.55694        0.99952
C          3.22049       -1.10023       -1.51314
C          1.89744        1.48757       -1.14789
C         -1.92258        1.56424       -0.32247
C         -3.68726       -0.41417       -1.28571
C         -2.21456       -0.86274        1.20264
P         -1.96985       -0.26305       -0.53862
P          1.65460       -0.34473       -0.81133
C         -0.65840       -0.39040       -3.37006
O         -0.87500        0.15038       -4.36813
C          1.22939        0.34014        1.89007
H          0.72958        1.23499        1.51786
C          2.42479       -1.71502        1.52615
H          2.84647       -2.46511        0.85276
C          1.26378        0.09973        3.26156
H          0.79677        0.81518        3.94298
C          2.46709       -1.97032        2.89974
C          3.13036       -3.20897        3.42968
H          3.22058       -3.98184        2.65271
H          4.14712       -2.98870        3.79582
H          2.56893       -3.63600        4.27411
C          1.88491       -1.03914        3.76838
H          1.90426       -1.21821        4.84675
H          3.02385       -1.10358       -2.59620
H          3.20600       -2.15683       -1.20638
C          4.53723       -0.45503       -1.21921
C          5.27157       -0.75714       -0.06295
H          4.89541       -1.50580        0.63533
C          5.06183        0.50338       -2.09874
H          4.52623        0.73023       -3.02493
C          6.46710       -0.10033        0.21851
H          7.01762       -0.34974        1.12887
C          6.25408        1.16624       -1.81672
H          6.63528        1.91539       -2.51465
C          6.95950        0.87213       -0.65139
H          7.89367        1.39168       -0.42642
H          0.93932        1.82019       -1.56699
H          2.62691        1.51487       -1.97306
C          2.31228        2.42792       -0.05316
C          3.53951        2.32140        0.61206
H          4.24162        1.53611        0.33415
C          1.43062        3.44234        0.34036
H          0.46826        3.53732       -0.16538
C          3.86685        3.19631        1.64442
H          4.82924        3.08948        2.15098
C          1.75468        4.31659        1.37590
H          1.04521        5.09693        1.66416
C          2.97571        4.19492        2.03663
H          3.23382        4.87576        2.85148
C         -1.74701        2.34252       -1.47745
H         -1.56522        1.86011       -2.44042
C         -2.13458        2.21108        0.89629
H         -2.28574        1.62986        1.80800
C         -1.82759        3.72893       -1.40571
H         -1.70676        4.32681       -2.31221
C         -2.18613        3.60900        0.98988
C         -2.37358        4.26776        2.32466
H         -2.63644        5.32959        2.21884
H         -3.16651        3.77415        2.90656
H         -1.44664        4.21033        2.91927
C         -2.04841        4.35921       -0.18001
H         -2.10217        5.45006       -0.13057
H         -3.86450       -1.49448       -1.39447
H         -3.57191       -0.01395       -2.30450
C         -4.78806        0.27545       -0.54131
C         -5.05463        1.63571       -0.75618
H         -4.48115        2.18190       -1.50804
C         -5.54995       -0.39792        0.42383
H         -5.38245       -1.46335        0.59886
C         -6.03091        2.30119       -0.02050
H         -6.21563        3.36196       -0.20667
C         -6.52867        0.26531        1.16211
H         -7.10951       -0.28457        1.90665
C         -6.76924        1.62079        0.94718
H         -7.53557        2.14285        1.52502
H         -3.20122       -0.52048        1.55434
H         -1.44469       -0.35058        1.79774
C         -2.04482       -2.34355        1.36641
C         -0.89077       -2.83933        1.98412
H         -0.14683       -2.13775        2.36331
C         -2.98380       -3.26408        0.88500
H         -3.89278       -2.90987        0.39565
C         -0.67552       -4.20988        2.11076
H          0.23653       -4.56795        2.59510
C         -2.77270       -4.63565        1.01018
H         -3.51870       -5.33474        0.62441
C         -1.61522       -5.11569        1.62153
H         -1.44890       -6.19129        1.71698
