92
Cat478.ts34.5.log	Energy: -1682913.8534424
C         -0.06681       -2.76426       -2.29680
H          0.52588       -3.66356       -2.10904
H         -1.14901       -2.92088       -2.31993
C          0.50323       -1.74636       -3.10043
H          1.52103       -1.86133       -3.48364
H         -0.15308       -1.18510       -3.77387
H          0.34787       -0.31592       -2.22162
Rh         0.55772       -1.23072       -0.90601
O         -1.92681        0.99112       -0.90830
C         -2.91384       -1.53350       -1.07958
C         -2.05639       -0.43896        1.47883
O          2.55525        0.24370        1.38443
C          3.35985        0.94555       -1.13382
C          1.10904        2.09035        0.24928
P          1.87686        0.46789       -0.14103
P         -1.58449       -0.54758       -0.29631
C          1.19832       -2.63806        0.20176
O          1.47273       -3.58615        0.79187
C         -2.76860        1.95335       -0.43377
C         -3.79140        2.42027       -1.26493
H         -3.91428        1.98412       -2.25713
C         -2.58011        2.52543        0.82576
H         -1.75089        2.19301        1.44799
C         -4.63835        3.43393       -0.82294
H         -5.43571        3.79176       -1.47888
C         -3.43894        3.53002        1.26184
H         -3.28330        3.96890        2.25032
C         -4.47481        3.98535        0.44728
H         -5.14434        4.77507        0.79518
C         -3.51014       -1.04926       -2.24970
H         -3.23621       -0.05567       -2.60624
C         -3.20144       -2.84592       -0.64154
C         -2.53650       -3.45162        0.55896
H         -2.91514       -3.01982        1.49865
H         -1.45042       -3.27095        0.54549
H         -2.70426       -4.53680        0.59170
C         -4.43105       -1.81443       -2.95954
H         -4.89119       -1.41281       -3.86549
C         -4.13139       -3.59618       -1.36998
H         -4.36356       -4.61009       -1.03214
C         -4.75321       -3.09208       -2.50995
H         -5.47435       -3.70568       -3.05498
C         -0.96341       -0.46259        2.35555
H          0.03639       -0.58003        1.93007
C         -3.36739       -0.30994        1.99799
C         -4.61442       -0.30998        1.16317
H         -4.87991       -1.33008        0.84416
H         -4.51307        0.28950        0.25098
H         -5.45658        0.09405        1.74155
C         -1.12925       -0.34423        3.73123
H         -0.26069       -0.36231        4.39348
C         -3.50752       -0.19465        3.38699
H         -4.51377       -0.08703        3.80072
C         -2.41362       -0.20674        4.24813
H         -2.56962       -0.11089        5.32555
C          3.15990       -0.90637        1.79456
C          2.80547       -1.40471        3.04944
H          2.05525       -0.87030        3.63482
C          4.12152       -1.56103        1.02156
H          4.40183       -1.15844        0.04773
C          3.40029       -2.56934        3.52398
H          3.11228       -2.96145        4.50221
C          4.70522       -2.72956        1.50540
H          5.44809       -3.24723        0.89406
C          4.34714       -3.24093        2.75111
H          4.80409       -4.16176        3.11949
C          3.57631        0.18591       -2.28877
H          2.86219       -0.61105       -2.50825
C          4.27665        1.96333       -0.78081
C          4.14483        2.81751        0.44571
H          3.88451        2.21944        1.32820
H          3.34977        3.56938        0.32351
H          5.08594        3.34894        0.64350
C          4.66520        0.42024       -3.12268
H          4.81107       -0.18487       -4.02033
C          5.36919        2.17566       -1.63102
H          6.08958        2.95494       -1.36747
C          5.56618        1.42671       -2.78868
H          6.43264        1.62712       -3.42384
C          0.99678        2.48972        1.58764
H          1.35507        1.82266        2.37099
C          0.64388        2.94369       -0.77569
C          0.65458        2.56235       -2.22513
H         -0.08732        1.76793       -2.40238
H          1.63276        2.18350       -2.55355
H          0.39216        3.42375       -2.85394
C          0.47934        3.73655        1.92602
H          0.41504        4.03056        2.97625
C          0.12951        4.19295       -0.40803
H         -0.22804        4.86034       -1.19638
C          0.05469        4.59929        0.92028
H         -0.35209        5.58266        1.16690
