92
Cat479.ts34.5.log	Energy: -1682919.5915521
C          1.69557       -3.64521        0.04143
H          1.43214       -4.36184       -0.74064
H          2.75437       -3.37152        0.08525
C          0.93015       -3.64045        1.23635
H          0.06285       -4.29852        1.33502
H          1.44538       -3.45041        2.18408
H          0.50371       -2.05439        1.47509
Rh         0.36080       -1.95808       -0.13503
O          1.63721        0.86647        1.19619
C          3.62301       -0.76888        0.36843
C          2.14437        0.83428       -1.48630
O         -1.50434        0.66098       -0.39690
C         -3.18785       -1.50500       -0.41464
C         -2.01214       -0.53278        2.01414
P         -1.60135       -0.90103        0.27078
P          1.91727       -0.26406       -0.04329
C          0.03827       -2.27274       -1.97297
O         -0.11605       -2.40930       -3.10600
C          1.91980        2.20045        1.09749
C          3.11488        2.70967        1.60691
H          3.83975        2.02658        2.05247
C          0.97865        3.05123        0.51331
H          0.05889        2.62028        0.11554
C          3.36700        4.07842        1.52332
H          4.30326        4.47804        1.92087
C          1.24284        4.41499        0.43175
H          0.50740        5.07643       -0.03248
C          2.43683        4.93374        0.93426
H          2.64191        6.00454        0.86724
C          4.04481       -0.79869        1.70196
H          3.39377       -0.39676        2.48170
C          4.44597       -1.31814       -0.62293
H          4.10680       -1.31928       -1.66364
C          5.28583       -1.34524        2.02298
H          5.61654       -1.36596        3.06455
C          5.69427       -1.86580       -0.31374
C          6.58299       -2.41073       -1.39398
H          7.14830       -3.28781       -1.04614
H          6.00425       -2.70413       -2.28125
H          7.31889       -1.65511       -1.71612
C          6.10398       -1.87090        1.02626
H          7.07412       -2.30111        1.29008
C          3.31249        1.58005       -1.70016
H          4.17197        1.45917       -1.03807
C          1.04997        1.01120       -2.33472
H          0.13679        0.44581       -2.13661
C          3.36481        2.48396       -2.75477
H          4.27179        3.06930       -2.92411
C          1.08695        1.92405       -3.39468
C         -0.11935        2.11152       -4.26787
H         -0.49763        1.14394       -4.63234
H         -0.93886        2.58767       -3.70500
H          0.10372        2.74308       -5.13926
C          2.26170        2.65450       -3.59260
H          2.31469        3.37170       -4.41671
C         -2.51214        1.56653       -0.53328
C         -2.84669        2.42727        0.51534
H         -2.31276        2.34701        1.46306
C         -3.18051        1.65429       -1.75771
H         -2.90358        0.96458       -2.55707
C         -3.86450        3.36273        0.33591
H         -4.12711        4.03309        1.15792
C         -4.19255        2.59550       -1.92695
H         -4.71474        2.65904       -2.88480
C         -4.54250        3.44941       -0.87987
H         -5.33818        4.18561       -1.01374
C         -3.19203       -2.66942       -1.19040
H         -2.25968       -3.22351       -1.32140
C         -4.38980       -0.81010       -0.22024
H         -4.40895        0.08535        0.40462
C         -4.37596       -3.11210       -1.77363
H         -4.37702       -4.02308       -2.37671
C         -5.58277       -1.23448       -0.81321
C         -6.84039       -0.43902       -0.61687
H         -7.09373       -0.35021        0.45134
H         -6.71608        0.58549       -1.00294
H         -7.69588       -0.89780       -1.13188
C         -5.55748       -2.39539       -1.59363
H         -6.48121       -2.74476       -2.06357
C         -3.10262       -1.08846        2.68766
H         -3.79971       -1.74627        2.16542
C         -1.11275        0.28452        2.71388
H         -0.23175        0.67322        2.19642
C         -3.29360       -0.80364        4.04073
H         -4.14436       -1.24058        4.56957
C         -1.30285        0.58762        4.06214
C         -0.34307        1.48714        4.78640
H          0.54010        1.70544        4.16988
H         -0.81712        2.44852        5.04355
H         -0.00218        1.03317        5.72983
C         -2.41110        0.03114        4.71802
H         -2.57538        0.24859        5.77744
