96
Cat435.ts34.5.log	Energy: -1886830.4892853
C         -0.31984        3.17833       -2.70514
H          0.00394        3.20609       -3.74879
H         -1.38271        3.39496       -2.55995
C          0.60689        3.57539       -1.70051
H          1.63641        3.82025       -1.97465
H          0.24662        4.15803       -0.84525
H          0.47534        2.38642       -0.55857
Rh         0.38857        1.36319       -1.80583
C         -1.73794        0.67967        0.94147
C         -3.12877        1.41051       -1.51643
C         -1.96658       -1.26472       -1.28708
C          1.85154       -1.62602       -0.53617
C          3.72466        0.27329       -1.45061
C          2.32919        0.70936        1.08193
P          2.01346        0.20237       -0.67781
P         -1.59928        0.53256       -0.87972
C          0.67314        0.53253       -3.47527
O          0.84023        0.02039       -4.49727
C         -1.17232       -0.28769        1.78450
H         -0.73182       -1.19397        1.36771
C         -2.24520        1.84933        1.52488
H         -2.62954        2.65113        0.88972
C         -1.17081       -0.10219        3.16522
H         -0.73780       -0.87146        3.80947
C         -2.24955        2.05085        2.90809
C         -2.82279        3.30629        3.49983
H         -2.19670        3.68598        4.32128
H         -2.91747        4.10133        2.74626
H         -3.82693        3.12505        3.91797
C         -1.71298        1.05042        3.72825
H         -1.70511        1.18531        4.81311
H         -3.04427        2.45124       -1.16952
H         -2.95449        1.44794       -2.60267
C         -4.47717        0.83461       -1.21976
C         -5.08174       -0.04845       -2.12659
H         -4.58470       -0.26814       -3.07530
C         -5.16849        1.12663       -0.03447
H         -4.73462        1.81636        0.69012
C         -6.30731       -0.65041       -1.85440
H         -6.77416       -1.34212       -2.55760
C         -6.39725        0.53858        0.25219
H         -6.93489        0.76235        1.17530
C         -6.94946       -0.35319       -0.65954
F         -8.12223       -0.92263       -0.38748
H         -2.71119       -1.21151       -2.09722
H         -1.04068       -1.63876       -1.74176
C         -2.41582       -2.22262       -0.22218
C         -1.59181       -3.30365        0.11326
H         -0.64778       -3.44118       -0.41632
C         -3.61878       -2.06948        0.47807
H         -4.27777       -1.23287        0.24948
C         -1.93971       -4.19975        1.12126
H         -1.29457       -5.04037        1.38424
C         -3.98484       -2.95751        1.48442
H         -4.91993       -2.83736        2.03434
C         -3.13626       -4.01170        1.79972
F         -3.47808       -4.85900        2.77196
C          1.60538       -2.34248       -1.71822
H          1.43622       -1.81001       -2.65680
C          2.04544       -2.33613        0.65025
H          2.25008       -1.80510        1.58197
C          1.59983       -3.73319       -1.70496
H          1.42463       -4.28365       -2.63239
C          2.01151       -3.73760        0.68553
C          2.18668       -4.46283        1.98707
H          3.03127       -4.05444        2.56230
H          1.28510       -4.36111        2.61373
H          2.36548       -5.53588        1.83191
C          1.80430       -4.42742       -0.51118
H          1.79149       -5.52060       -0.50813
H          3.56834       -0.07774       -2.48200
H          3.96906        1.34350       -1.52374
C          4.79308       -0.51096       -0.75422
C          5.62359        0.07874        0.20865
H          5.53744        1.14719        0.41909
C          4.96150       -1.88020       -1.01023
H          4.33595       -2.36814       -1.76026
C          6.57435       -0.66282        0.90655
H          7.22312       -0.20252        1.65378
C          5.90516       -2.63702       -0.32386
H          6.03453       -3.70236       -0.52251
C          6.69851       -2.01858        0.63461
F          7.60183       -2.73862        1.29935
H          1.54214        0.21888        1.67259
H          3.29902        0.29234        1.39778
C          2.25262        2.18854        1.31269
C          3.23783        3.07313        0.85751
H          4.11914        2.69063        0.34006
C          1.13770        2.72733        1.96548
H          0.35563        2.05889        2.32683
C          3.11840        4.44855        1.04007
H          3.88356        5.14135        0.68556
C          0.99910        4.09929        2.15632
H          0.12778        4.51745        2.66380
C          1.99422        4.94651        1.68693
F          1.87066        6.26227        1.86117
