84
Cat415.ts34.5.log	Energy: -1539249.3577441
C         -0.76779       -2.55187       -2.56742
H         -0.36577       -3.56212       -2.45409
H         -1.85623       -2.49284       -2.66281
C          0.02873       -1.58035       -3.23077
H          1.03790       -1.83891       -3.56547
H         -0.47552       -0.86363       -3.88901
H          0.06236       -0.29051       -2.24561
Rh         0.05482       -1.33513       -0.99727
C         -1.82732        1.59545       -0.03907
C         -3.34671       -0.46599       -1.28376
C         -2.51647       -0.74579        1.43051
C          1.71952        0.16660        1.64820
C          3.47747       -1.19204       -0.16720
C          2.48903        1.32020       -0.89645
P          1.89251       -0.24556       -0.12824
P         -1.87167       -0.23925       -0.21624
C          0.26866       -2.79903        0.16515
O          0.37519       -3.67809        0.90145
C         -2.58048        2.28344        0.92057
H         -3.22408        1.73416        1.61007
C         -1.00148        2.32061       -0.90230
H         -0.39500        1.77505       -1.63109
C         -2.49686        3.67024        1.00182
H         -3.08037        4.20485        1.75573
C         -0.91309        3.71679       -0.83814
C         -0.00237        4.46152       -1.76824
H         -0.17478        4.16972       -2.81535
H         -0.14332        5.54852       -1.68750
H          1.05187        4.23595       -1.54547
C         -1.67105        4.38115        0.13157
H         -1.61165        5.47061        0.20602
C         -3.89556       -1.75420       -1.38871
C         -3.87997        0.56009       -2.07185
C         -5.48717       -0.97345       -3.03034
C         -4.94063        0.30488       -2.94146
C         -4.96261       -2.00270       -2.24667
H         -3.48278       -2.56563       -0.78219
H         -5.38458       -3.00889       -2.30840
H         -6.32086       -1.16968       -3.70870
H         -5.34737        1.11765       -3.54850
H         -3.46871        1.56946       -1.99962
C         -1.59128       -1.07873        2.42647
C         -3.88334       -0.76058        1.74186
C         -3.38071       -1.41337        4.01438
C         -4.31133       -1.09687        3.02484
C         -2.02004       -1.40126        3.71214
H         -0.52555       -1.08327        2.19224
H         -1.28004       -1.65215        4.47547
H         -3.71812       -1.67648        5.01998
H         -5.38018       -1.10940        3.25260
H         -4.61889       -0.50788        0.97471
C          2.17461       -0.72135        2.62916
H          2.76327       -1.59713        2.34808
C          0.94599        1.27149        2.03098
H          0.55875        1.95176        1.26841
C          1.86551       -0.49012        3.96907
H          2.22498       -1.18396        4.73307
C          0.62758        1.51021        3.37001
C         -0.25225        2.66175        3.75516
H         -0.23514        3.45541        2.99567
H         -1.29844        2.32497        3.84604
H          0.04322        3.09102        4.72397
C          1.10360        0.61473        4.33689
H          0.86384        0.78419        5.39029
C          3.52710       -2.41189       -0.84447
C          4.64322       -0.69353        0.43057
C          5.87256       -2.63434       -0.31557
C          5.83185       -1.41271        0.36034
C          4.72051       -3.13146       -0.91880
H          2.60959       -2.78535       -1.30929
H          4.74632       -4.08634       -1.44934
H          6.80762       -3.19727       -0.37078
H          6.73431       -1.01808        0.83361
H          4.62077        0.26304        0.95846
C          2.46832        1.40242       -2.29404
C          3.06811        2.36483       -0.16651
C          3.61434        3.52651       -2.21667
C          3.62349        3.46230       -0.82423
C          3.03193        2.49341       -2.95066
H          2.01103        0.59236       -2.86788
H          3.01462        2.53792       -4.04226
H          4.05420        4.38499       -2.72973
H          4.07077        4.27111       -0.24121
H          3.08906        2.32274        0.92459
