100
Cat424.ts34.5.log	Energy: -1826605.3060690
C          0.17214       -3.60647        0.89747
H          0.12393       -4.36796        0.11558
H          1.12167       -3.57218        1.43903
C         -1.02509       -3.23345        1.56440
H         -1.98786       -3.64236        1.24574
H         -0.98215       -3.00888        2.63557
H         -1.03905       -1.57947        1.52094
Rh        -0.42346       -1.71788        0.03024
C          1.64403        0.27879        2.24241
O          2.92219       -1.26477        0.58994
O          1.69662        0.79278       -0.39555
C         -1.88741        0.64175       -2.16258
O         -3.52477       -0.47840       -0.43834
O         -1.79811        1.19274        0.48091
P         -1.89179       -0.14086       -0.53045
P          1.42063       -0.52498        0.62381
C         -0.25879       -2.39010       -1.74771
O         -0.15474       -2.78331       -2.82153
C          0.50171        0.80163        2.85950
H         -0.47720        0.66090        2.39415
C          2.90171        0.47614        2.81766
H          3.78363        0.06554        2.32144
C          0.63428        1.52700        4.03972
H         -0.25189        1.94307        4.52513
C          3.04537        1.20840        4.00037
C          4.41037        1.45338        4.57512
H          4.98417        0.51781        4.65906
H          4.98856        2.13001        3.92478
H          4.35484        1.91108        5.57284
C          1.89427        1.72844        4.60213
H          1.98815        2.30314        5.52803
C          3.27271       -2.16065       -0.37939
C          3.93834       -3.32115        0.01587
H          4.14069       -3.47468        1.07769
C          3.00802       -1.93892       -1.73110
H          2.49412       -1.02839       -2.04208
C          4.32700       -4.25463       -0.93844
H          4.84905       -5.16012       -0.61623
C          3.39402       -2.89053       -2.67267
H          3.16665       -2.71196       -3.72696
C          4.05506       -4.06430       -2.29994
C          4.43517       -5.10148       -3.31688
H          5.39566       -5.57774       -3.06952
H          4.51945       -4.66692       -4.32327
H          3.67818       -5.90205       -3.36851
C          2.65131        1.74283       -0.13453
C          3.96917        1.54851       -0.54336
H          4.23968        0.62966       -1.06655
C          2.29490        2.90699        0.54696
H          1.26431        3.03108        0.88388
C          4.92531        2.52274       -0.26324
H          5.95880        2.36085       -0.58212
C          3.26103        3.86928        0.81859
H          2.97363        4.77298        1.36327
C          4.59359        3.69691        0.42160
C          5.62404        4.75269        0.70149
H          6.64280        4.34047        0.66978
H          5.47229        5.21172        1.68995
H          5.57478        5.56442       -0.04366
C         -3.05331        1.02769       -2.83060
H         -4.02828        0.80585       -2.39470
C         -0.63332        0.92630       -2.71066
H          0.26754        0.63658       -2.16179
C         -2.94467        1.70339       -4.04240
H         -3.84792        2.01567       -4.57213
C         -0.51614        1.60766       -3.92540
C          0.83834        1.88961       -4.50793
H          1.58202        2.07072       -3.71785
H          1.19542        1.03151       -5.10170
H          0.81971        2.76474       -5.17335
C         -1.69131        1.99269       -4.58058
H         -1.62315        2.53087       -5.53042
C         -3.99627       -1.35085        0.50488
C         -4.58330       -2.54182        0.08187
H         -4.64246       -2.74778       -0.98826
C         -3.88424       -1.07306        1.86685
H         -3.40604       -0.14640        2.18936
C         -5.06078       -3.44747        1.02393
H         -5.51460       -4.38220        0.68273
C         -4.36179       -1.99329        2.79752
H         -4.26175       -1.77171        3.86371
C         -4.95856       -3.19391        2.39834
C         -5.49486       -4.16980        3.40534
H         -6.58139       -4.04085        3.54436
H         -5.02047       -4.03618        4.38808
H         -5.33001       -5.20961        3.08605
C         -2.38599        2.39471        0.16979
C         -3.73185        2.62191        0.44456
H         -4.33224        1.82841        0.89188
C         -1.61238        3.39389       -0.42096
H         -0.56519        3.18709       -0.64744
C         -4.29697        3.85593        0.12672
H         -5.35534        4.02762        0.34163
C         -2.19153        4.61831       -0.73226
H         -1.57918        5.39267       -1.20284
C         -3.54329        4.87408       -0.46539
C         -4.15183        6.20654       -0.79491
H         -5.24829        6.17738       -0.72383
H         -3.88611        6.52809       -1.81368
H         -3.79521        6.98956       -0.10538
