82
Cat43.ts34.5.log	Energy: -1397388.7074232
C          0.93757       -2.25862       -1.99680
H          0.45728       -2.12998       -2.97030
H          2.03135       -2.22215       -2.00402
C          0.28315       -3.05463       -1.02609
H         -0.68708       -3.50307       -1.25978
H          0.90326       -3.66473       -0.35952
H          0.03729       -2.16371        0.31571
Rh         0.02360       -0.83872       -0.64496
C          1.86239       -0.66536        2.39919
C          3.45234       -1.10017       -0.01323
C          2.37863        1.57407        0.66593
C         -1.63945        0.32429        2.22044
C         -2.58290        1.39795       -0.34691
C         -3.33279       -1.29336        0.60367
P         -1.90826       -0.11521        0.43601
P          1.96299       -0.22739        0.59539
C         -0.14731        0.41367       -2.02825
O         -0.21296        1.18445       -2.88185
H          1.62337       -1.74157        2.42419
C          2.97941       -0.31130        3.36468
H          3.17977        0.77015        3.36190
H          3.91940       -0.83195        3.13099
H          0.93335       -0.16618        2.70834
H          2.69525       -0.59182        4.39145
C          3.91182       -2.24034        0.66302
H          3.45026       -2.53427        1.60735
C          4.03334       -0.76275       -1.25988
C          3.54513        0.39265       -2.08076
H          3.79810        1.36350       -1.62742
H          2.44864        0.37070       -2.17136
H          3.97806        0.36560       -3.08996
C          4.95251       -3.01620        0.16032
H          5.29274       -3.89460        0.71392
C          5.08380       -1.55240       -1.74121
H          5.53656       -1.28726       -2.70078
C          5.55230       -2.66365       -1.04522
H          6.37277       -3.25916       -1.45218
C          1.27749        2.41305        0.43885
H          0.32693        1.94780        0.16756
C          3.63591        2.15638        0.95510
C          4.91378        1.38597        1.13295
H          4.76851        0.41180        1.60776
H          5.62925        1.96522        1.73390
H          5.38804        1.18491        0.15838
C          1.37410        3.79778        0.51635
H          0.49291        4.41488        0.32572
C          3.71100        3.55564        1.02389
H          4.67947        4.01234        1.24698
C          2.60505        4.37372        0.81515
H          2.71127        5.45959        0.87695
H         -0.82866        1.07134        2.22493
C         -2.79592        0.74750        3.10845
H         -3.59103       -0.01221        3.11879
H         -3.24081        1.70168        2.79128
H         -1.18593       -0.60119        2.61049
H         -2.44759        0.87739        4.14513
C         -2.35301        2.64555        0.24927
H         -1.86106        2.70326        1.22169
C         -3.19622        1.33993       -1.61957
C         -3.45039        0.04439       -2.33226
H         -4.33049       -0.47842       -1.92464
H         -2.59720       -0.64469       -2.22236
H         -3.62529        0.21860       -3.40270
C         -2.73578        3.82879       -0.37592
H         -2.54794        4.78824        0.11206
C         -3.57412        2.54244       -2.22684
H         -4.04394        2.50264       -3.21337
C         -3.35621        3.77631       -1.62078
H         -3.66100        4.69526       -2.12683
C         -2.95248       -2.64227        0.63271
H         -1.89559       -2.87807        0.50114
C         -4.70178       -0.96550        0.76060
C         -5.26752        0.42744        0.74200
H         -5.42356        0.78416       -0.28834
H         -4.61778        1.16334        1.22441
H         -6.24321        0.44323        1.24783
C         -3.87320       -3.66908        0.80992
H         -3.53705       -4.70829        0.83172
C         -5.61428       -2.01953        0.92134
H         -6.67340       -1.77278        1.03724
C         -5.22090       -3.35294        0.94736
H         -5.96750       -4.14003        1.07815
