100
Cat403.ts34.5.log	Energy: -1826501.5980874
C         -0.79450        1.57094       -3.08779
H         -0.51663        1.16189       -4.06269
H         -1.84957        1.83820       -2.98487
C          0.16907        2.31022       -2.35753
H          1.19084        2.41547       -2.73334
H         -0.17478        3.16385       -1.76163
H          0.14322        1.63722       -0.80651
Rh        -0.02961        0.23629       -1.56858
C         -2.50420        1.87544        0.09290
C         -3.45997       -0.78608       -0.84723
C         -1.90383       -0.64598        1.42481
C          2.28734       -1.93197        0.28527
C          3.41081        0.23860       -1.06953
C          1.71005        0.88019        1.26462
P          1.82657       -0.19273       -0.22127
P         -1.98734        0.13739       -0.24326
C          0.02022       -1.22622       -2.75056
O          0.01418       -2.11557       -3.49112
C         -1.66314        2.56295        0.98673
H         -0.85597        2.02223        1.48557
C         -3.48110        2.60583       -0.61766
C         -4.39475        2.01746       -1.65596
H         -5.23268        1.47412       -1.19391
H         -3.88439        1.30266       -2.31407
H         -4.81895        2.81555       -2.28126
C         -1.80886        3.92059        1.23922
H         -1.13727        4.41061        1.94813
C         -3.60382        3.97932       -0.35166
H         -4.35951        4.54556       -0.90367
C         -2.79764        4.63812        0.56844
H         -2.92709        5.70896        0.74334
C         -3.34342       -1.57465       -1.98917
H         -2.39818       -1.55445       -2.53303
C         -4.67492       -0.80875       -0.12989
O         -4.75555        0.00325        0.94022
C         -5.88418       -0.04050        1.76375
H         -6.79556        0.28304        1.23034
H         -5.69224        0.65460        2.59085
H         -6.04920       -1.05102        2.17594
C         -4.39420       -2.37943       -2.43023
H         -4.27754       -2.98854       -3.32874
C         -5.72879       -1.62053       -0.56026
H         -6.67016       -1.64384       -0.01058
C         -5.58206       -2.40044       -1.70813
H         -6.41481       -3.02840       -2.03493
C         -2.26522       -0.03788        2.62587
H         -2.67325        0.97335        2.60375
C         -1.43105       -1.97847        1.46411
O         -1.18149       -2.55231        0.27835
C         -0.81399       -3.90275        0.22026
H          0.13811       -4.09014        0.74271
H         -0.68131       -4.13812       -0.84235
H         -1.60326       -4.54857        0.64379
C         -2.11059       -0.69092        3.84910
H         -2.39717       -0.18787        4.77541
C         -1.25412       -2.63073        2.68960
H         -0.86222       -3.64736        2.71874
C         -1.58766       -1.97993        3.87784
H         -1.44844       -2.49909        4.82940
C          2.18628       -2.78318       -0.82991
H          1.82899       -2.36984       -1.77264
C          2.78603       -2.47071        1.49413
C          3.05822       -1.71624        2.76540
H          2.20820       -1.78511        3.46251
H          3.26085       -0.65875        2.58594
H          3.92755       -2.15943        3.27337
C          2.53218       -4.12565       -0.78643
H          2.44507       -4.73859       -1.68634
C          3.08995       -3.84439        1.52519
H          3.46297       -4.26271        2.46465
C          2.97166       -4.67135        0.41686
H          3.23610       -5.72914        0.48973
C          3.38932        0.38835       -2.45373
H          2.42080        0.28278       -2.95360
C          4.63869        0.38500       -0.39511
O          4.61246        0.24347        0.94513
C          5.79273        0.39870        1.67872
H          6.55630       -0.34389        1.38880
H          5.52775        0.24376        2.73235
H          6.21589        1.41171        1.56210
C          4.54897        0.67231       -3.17726
H          4.50511        0.77952       -4.26305
C          5.80254        0.67917       -1.11044
H          6.75524        0.79889       -0.59414
C          5.75228        0.81897       -2.49862
H          6.67150        1.04521       -3.04494
C          1.02941        0.44840        2.40191
H          0.64786       -0.57179        2.44024
C          2.10499        2.23518        1.20188
O          2.65312        2.64545        0.04398
C          3.01178        3.98470       -0.12853
H          2.14029        4.65531       -0.02833
H          3.41411        4.06677       -1.14619
H          3.79037        4.29751        0.58939
C          0.81250        1.29241        3.49196
H          0.28056        0.91480        4.36608
C          1.89294        3.08494        2.29093
H          2.21248        4.12614        2.24483
C          1.25816        2.60703        3.43809
H          1.09777        3.28113        4.28297
