110
Cat445.ts34.5.log	Energy: -2064474.2785347
C          1.10148        1.73698       -2.97057
H          0.92246        2.80898       -3.09168
H          2.15159        1.43676       -3.04175
C          0.09537        0.83284       -3.40570
H         -0.84968        1.21833       -3.79872
H          0.41097       -0.11001       -3.86816
H         -0.13730       -0.20375       -2.10736
Rh         0.08735        1.09381       -1.18162
C          2.50959       -1.32798       -1.78025
C          3.47509        0.82781       -0.06241
C          1.94136       -1.14656        1.06730
C         -1.59030       -0.04080        1.77088
C         -3.14621        1.64702        0.08115
C         -2.80740       -0.95888       -0.71805
P         -1.77929        0.40108       -0.01131
P          1.96414       -0.14576       -0.47181
C          0.04131        2.82640       -0.44411
O          0.02126        3.90318       -0.02607
C          1.68177       -2.44078       -2.04869
O          0.58519       -2.54586       -1.27852
C         -0.33722       -3.57221       -1.51148
H         -1.19640       -3.35549       -0.86876
H         -0.68093       -3.58137       -2.55880
H          0.08720       -4.56148       -1.26178
C          3.59140       -1.10423       -2.65850
O          4.27109        0.04499       -2.50200
C          5.45071        0.27852       -3.21374
H          5.84619        1.23214       -2.84139
H          5.26785        0.36285       -4.29956
H          6.19847       -0.51348       -3.03548
C          3.90989       -2.02428       -3.66716
H          4.76457       -1.85281       -4.32021
C          1.99019       -3.36161       -3.05762
H          1.35794       -4.23153       -3.22919
C          3.11440       -3.14877       -3.84694
H          3.36478       -3.86549       -4.63265
C          4.60764        0.22362        0.50587
H          4.60060       -0.84893        0.71651
C          3.50549        2.19848       -0.29627
H          2.62657        2.67891       -0.73055
C          5.73693        0.96610        0.80472
H          6.62287        0.50531        1.24643
C          4.63448        2.96452        0.00442
H          4.61573        4.03747       -0.18879
C          5.76117        2.34748        0.55408
O          6.90222        2.99158        0.88071
C          6.97525        4.37241        0.67265
H          6.21295        4.91832        1.25663
H          7.97164        4.69049        1.00574
H          6.85517        4.63636       -0.39353
C          1.67159       -0.42447        2.24222
H          1.44389        0.64314        2.17274
C          2.23590       -2.50221        1.18016
H          2.48602       -3.08404        0.29147
C          1.69683       -1.03769        3.48136
H          1.48456       -0.47935        4.39371
C          2.23872       -3.14170        2.42427
H          2.47103       -4.20632        2.47236
C          1.96109       -2.41028        3.58171
O          1.91113       -2.93839        4.82669
C          2.19475       -4.29652        4.98790
H          3.21746       -4.54861        4.65451
H          2.10866       -4.51442        6.06040
H          1.48119       -4.93718        4.43748
C         -1.51143       -1.34441        2.29887
O         -1.46020       -2.36704        1.42473
C         -1.43828       -3.67770        1.91528
H         -1.43869       -4.33901        1.04076
H         -0.52690       -3.87049        2.50561
H         -2.32899       -3.90083        2.52789
C         -1.44467        1.03440        2.67566
O         -1.34077        2.24629        2.11110
C         -1.39096        3.40725        2.89205
H         -1.31904        4.24603        2.18985
H         -0.54457        3.45935        3.59821
H         -2.33954        3.47254        3.45184
C         -1.40929        0.83308        4.05932
H         -1.33597        1.67751        4.74330
C         -1.48414       -1.55441        3.68542
H         -1.43970       -2.56205        4.09372
C         -1.45293       -0.46745        4.54781
H         -1.42265       -0.64070        5.62602
C         -4.14370        1.62347        1.06727
H         -4.09523        0.89006        1.87620
C         -3.23854        2.60547       -0.92409
H         -2.45703        2.63533       -1.68941
C         -5.18549        2.53641        1.05133
H         -5.95898        2.53111        1.82205
C         -4.28742        3.52681       -0.96098
H         -4.31922        4.26373       -1.76395
C         -5.26862        3.49812        0.03292
O         -6.31724        4.34633        0.09828
C         -6.44965        5.32456       -0.89224
H         -6.56203        4.88070       -1.89760
H         -7.35644        5.89542       -0.65404
H         -5.58763        6.01532       -0.90764
C         -2.69508       -1.26907       -2.07661
H         -1.93242       -0.76437       -2.67159
C         -3.80580       -1.60371        0.01684
H         -3.94022       -1.37020        1.07527
C         -3.52786       -2.20452       -2.67707
H         -3.43937       -2.44529       -3.73829
C         -4.64206       -2.55360       -0.56358
H         -5.40182       -3.03876        0.04990
C         -4.50494       -2.86338       -1.92348
O         -5.26357       -3.76733       -2.57805
C         -6.27330       -4.43380       -1.87635
H         -7.02541       -3.73361       -1.47140
H         -6.76467       -5.10569       -2.59176
H         -5.86871       -5.03638       -1.04327
