104
Cat472.ts34.5.log	Energy: -1593406.9486166
C         -0.98132        1.43865       -3.15630
H         -0.72277        0.89882       -4.07081
H         -2.04109        1.69299       -3.06455
C         -0.01276        2.31222       -2.59504
H          0.97370        2.39317       -3.05893
H         -0.35191        3.24639       -2.13327
H          0.11930        1.89003       -1.00347
Rh        -0.11941        0.36292       -1.48966
O         -2.35919        1.94306        0.55457
C         -3.64287        0.42227       -1.09848
C         -2.22083       -0.71312        1.29684
O          1.54695       -0.74109        1.30218
C          2.99030       -1.20820       -0.96952
C          2.60606        1.48270        0.35757
P          1.73629       -0.04394       -0.24212
P         -2.04279        0.43160       -0.16148
C         -0.02202       -1.26308       -2.43166
O          0.05217       -2.27836       -2.97753
C         -1.44640        2.69597        1.20711
C         -1.51607        4.08339        1.03376
H         -2.27040        4.48282        0.35299
C         -0.48197        2.15483        2.06518
H         -0.39105        1.07482        2.18438
C         -0.64765        4.91939        1.72862
H         -0.71414        6.00092        1.58668
C          0.37277        3.00370        2.76618
H          1.11031        2.56835        3.44442
C          0.29930        4.38552        2.60455
H          0.97450        5.04289        3.15651
H         -3.52617        1.37017       -1.65877
C         -4.93705        0.54656       -0.29564
H         -4.85395        1.37165        0.42716
H         -5.10422       -0.37736        0.28347
C         -6.12709        0.76359       -1.22729
H         -7.05834        0.82602       -0.64082
H         -6.01426        1.73865       -1.73524
C         -6.22779       -0.34086       -2.27352
H         -7.07114       -0.14901       -2.95669
H         -6.45060       -1.29799       -1.76726
C         -4.92799       -0.48342       -3.05820
H         -4.76094        0.43194       -3.65489
H         -5.00121       -1.31361       -3.77923
C         -3.73186       -0.69822       -2.13578
H         -3.83571       -1.67175       -1.62868
H         -2.79741       -0.74655       -2.71473
H         -1.17601       -0.81265        1.64426
C         -2.66518       -2.11576        0.87443
H         -2.04035       -2.48216        0.04379
H         -3.70220       -2.07609        0.50019
C         -2.60060       -3.08049        2.05468
H         -2.94828       -4.07857        1.74177
H         -1.54923       -3.20151        2.36121
C         -3.41203       -2.57527        3.24106
H         -3.31766       -3.27081        4.09077
H         -4.48463       -2.55363        2.97369
C         -2.97104       -1.17401        3.64695
H         -1.92790       -1.21303        4.01027
H         -3.58093       -0.80238        4.48651
C         -3.05534       -0.20228        2.47363
H         -4.10757       -0.09438        2.16883
H         -2.72127        0.79905        2.78127
C          1.25487       -2.02919        1.59535
C          1.48306       -2.43140        2.91821
H          1.86174       -1.69232        3.62695
C          0.75201       -2.95484        0.67348
H          0.51386       -2.64484       -0.34263
C          1.24818       -3.74806        3.30022
H          1.43819       -4.04776        4.33379
C          0.53470       -4.27506        1.06623
H          0.14877       -4.98676        0.33244
C          0.78560       -4.68395        2.37352
H          0.61132       -5.71937        2.67261
H          2.39523       -2.13549       -1.05219
C          4.21074       -1.54623       -0.11514
H          3.91391       -1.78456        0.91748
H          4.87695       -0.66829       -0.06287
C          4.97390       -2.71544       -0.73305
H          5.86591       -2.94664       -0.12832
H          4.33327       -3.61497       -0.69908
C          5.37012       -2.42645       -2.17726
H          5.87655       -3.30030       -2.61842
H          6.10751       -1.60288       -2.18940
C          4.16580       -2.02559       -3.02373
H          3.47904       -2.88544       -3.12185
H          4.48487       -1.76522       -4.04600
C          3.40622       -0.85815       -2.40096
H          4.05421        0.03344       -2.39715
H          2.52036       -0.59878       -3.00051
H          1.74961        2.12478        0.62720
C          3.35378        2.18199       -0.77967
H          2.71726        2.24986       -1.67482
H          4.23582        1.58240       -1.06197
C          3.82396        3.56499       -0.34221
H          4.36385        4.05845       -1.16670
H          2.94205        4.19275       -0.12106
C          4.70730        3.47326        0.89665
H          5.01811        4.47835        1.22516
H          5.63490        2.93034        0.63794
C          3.99369        2.74273        2.02840
H          3.13465        3.35223        2.35707
H          4.65902        2.64139        2.90151
C          3.49096        1.36522        1.59921
H          4.35439        0.71407        1.39043
H          2.93066        0.88604        2.41429
