84
Cat417.ts34.5.log	Energy: -1788227.1159068
C         -0.71448        0.33628       -3.59860
H         -0.44418       -0.43825       -4.32123
H         -1.77772        0.59458       -3.57907
C          0.24031        1.35365       -3.31393
H          1.24014        1.30477       -3.75600
H         -0.12048        2.38110       -3.18942
H          0.26249        1.43922       -1.68233
Rh         0.11987       -0.17661       -1.69166
C         -1.57593        1.25065        1.11166
C         -3.28150        0.71310       -1.11860
C         -2.44447       -1.42453        0.49233
C          1.79569       -1.53380        1.05505
C          3.54954       -0.47103       -0.94279
C          2.19408        1.32545        0.75083
P          1.88372       -0.21210       -0.20978
P         -1.75562        0.08600       -0.30316
C          0.32429       -1.98877       -2.17113
O          0.44806       -3.09731       -2.46135
C         -1.84599        0.90486        2.43890
H         -2.21910       -0.09121        2.68233
C         -1.09862        2.54058        0.83483
H         -0.85666        2.80617       -0.19878
C         -1.62832        1.83175        3.45938
H         -1.82396        1.54783        4.49666
C         -0.92810        3.49576        1.83861
C         -0.50965        4.90016        1.51498
H         -0.18627        4.99117        0.46914
H         -1.34734        5.60008        1.66924
H          0.31737        5.23602        2.15748
C         -1.18141        3.11444        3.16417
H         -1.02738        3.83738        3.97008
C         -3.80476       -0.06761       -2.16163
H         -3.30842       -1.00430       -2.43166
C         -3.92660        1.90933       -0.78851
H         -3.54661        2.52843        0.02665
C         -4.94537        0.32620       -2.85119
H         -5.36364       -0.27678       -3.65919
C         -5.06508        2.32226       -1.48046
H         -5.57810        3.25290       -1.23071
C         -5.56037        1.52472       -2.50259
F         -6.64881        1.91292       -3.16465
C         -3.72950       -1.43359        1.05723
H         -4.34427       -0.53061        1.02223
C         -1.68706       -2.59851        0.52716
H         -0.69346       -2.60706        0.07809
C         -4.23917       -2.58061        1.65563
H         -5.23780       -2.60392        2.09566
C         -2.18245       -3.75612        1.12369
H         -1.59422       -4.67463        1.15707
C         -3.45314       -3.72959        1.68187
F         -3.93798       -4.83018        2.25197
C          2.53451       -2.71554        0.93138
H          3.26858       -2.82501        0.13060
C          0.84782       -1.42670        2.07965
H          0.24028       -0.52220        2.15746
C          2.32460       -3.75754        1.83298
H          2.90071       -4.68072        1.73375
C          0.63840       -2.45821        2.99858
C         -0.41319       -2.32228        4.05986
H         -0.43470       -1.30486        4.47720
H         -1.41149       -2.52379        3.63553
H         -0.25365       -3.03197        4.88377
C          1.39212       -3.62946        2.86005
H          1.24116       -4.45284        3.56355
C          3.66783       -0.77351       -2.30117
H          2.75485       -0.84610       -2.89993
C          4.71078       -0.35804       -0.16476
H          4.63375       -0.11065        0.89720
C          4.91899       -0.97454       -2.88189
H          5.02926       -1.21344       -3.94113
C          5.96497       -0.55509       -0.72945
H          6.88058       -0.47152       -0.14114
C          6.05031       -0.86265       -2.08518
F          7.25003       -1.04891       -2.62878
C          2.34183        1.38333        2.13883
H          2.27615        0.47387        2.73755
C          2.31408        2.51083        0.01119
H          2.20552        2.47899       -1.07619
C          2.56624        2.59963        2.78327
H          2.65822        2.66089        3.86895
C          2.56676        3.72462        0.63589
H          2.66495        4.65281        0.07032
C          2.67172        3.75288        2.02232
F          2.85863        4.92442        2.63320
