104
Cat431.ts34.5.log	Energy: -1452746.2488351
C          0.76033       -3.55200        1.02528
H          0.83461       -4.38570        0.32174
H          1.66373       -3.39198        1.62328
C         -0.50955       -3.29737        1.63359
H         -1.38453       -3.87307        1.31782
H         -0.53650       -3.05270        2.70193
H         -0.64550       -1.67510        1.52187
Rh        -0.02784       -1.83730        0.02909
C          1.13416        1.08661        1.63590
C          3.18320       -0.89506        1.34302
C          2.32995        0.61933       -0.95466
C         -1.12475        0.94770       -1.77242
C         -3.15486       -1.04291       -1.44928
C         -2.38026        0.59086        0.81312
P         -1.66959       -0.35280       -0.59695
P          1.65206       -0.27152        0.51015
C          0.21460       -2.54215       -1.70290
O          0.36884       -2.94045       -2.77699
C          1.01860        2.42373        1.24028
H          1.34848        2.73911        0.25037
C          0.67975        0.73015        2.91550
H          0.72810       -0.31970        3.22229
C          0.44435        3.36384        2.09808
H          0.34470        4.40221        1.77060
C          0.11787        1.65936        3.79118
C         -0.35177        1.25205        5.15766
H         -0.42924        0.15932        5.24749
H          0.34608        1.60125        5.93644
H         -1.33711        1.68491        5.38854
C         -0.00552        2.98889        3.35904
H         -0.46330        3.73102        4.01894
H          2.85455       -1.37162        2.28239
H          3.82353       -0.04399        1.62305
C          3.91940       -1.90547        0.47238
H          3.17948       -2.59011        0.02388
H          4.39900       -1.38448       -0.37594
C          4.98158       -2.72794        1.20462
H          4.47518       -3.24642        2.04141
C          5.55777       -3.79180        0.27789
H          4.76744       -4.44535       -0.12273
H          6.29105       -4.42671        0.79916
H          6.07114       -3.32659       -0.58037
C          6.08593       -1.85651        1.79223
H          6.84429       -2.46699        2.30681
H          5.69605       -1.12985        2.52080
H          6.59924       -1.28979        0.99666
H          1.48331        1.19519       -1.36174
H          2.51340       -0.16982       -1.70007
C          3.55454        1.50701       -0.76297
H          3.49838        2.03281        0.20486
H          4.46444        0.88328       -0.70777
C          3.73459        2.55026       -1.86964
H          2.82252        3.17887       -1.87366
C          4.92577        3.45148       -1.56923
H          4.82542        3.93791       -0.58610
H          5.03529        4.24207       -2.32800
H          5.86320        2.87057       -1.55794
C          3.85558        1.91378       -3.24925
H          3.99522        2.67995       -4.02792
H          2.95809        1.33480       -3.51220
H          4.72331        1.23372       -3.29196
C         -0.70782        0.56153       -3.05401
H         -0.78546       -0.48163       -3.36888
C         -0.97444        2.28646       -1.39401
H         -1.28139        2.60999       -0.39860
C         -0.15368        1.49791       -3.92133
H          0.17019        1.18717       -4.91762
C         -0.39953        3.23506       -2.24808
C         -0.18999        4.64819       -1.78586
H         -0.84585        4.89599       -0.93907
H          0.85101        4.80275       -1.45337
H         -0.38094        5.37172       -2.59210
C          0.00869        2.82345       -3.52063
H          0.46080        3.54731       -4.20430
H         -2.79436       -1.46435       -2.40233
H         -3.84113       -0.21750       -1.69659
C         -3.82498       -2.12896       -0.62186
H         -3.04638       -2.84895       -0.31588
H         -4.22381       -1.69582        0.31457
C         -4.95386       -2.87665       -1.33404
H         -4.53157       -3.29730       -2.26621
C         -5.43949       -4.03824       -0.47484
H         -4.61577       -4.72517       -0.22583
H         -6.22157       -4.61979       -0.98724
H         -5.86592       -3.67154        0.47412
C         -6.11053       -1.95858       -1.71375
H         -6.91680       -2.51924       -2.21180
H         -5.79599       -1.15616       -2.39784
H         -6.54189       -1.48333       -0.81604
H         -1.53813        1.16918        1.22822
H         -2.59742       -0.17110        1.57704
C         -3.59057        1.47758        0.54808
H         -3.50760        1.95339       -0.44353
H         -4.50400        0.85745        0.50519
C         -3.78049        2.57792        1.59645
H         -2.86901        3.20643        1.57406
C         -4.97046        3.45939        1.23899
H         -4.86323        3.89117        0.23147
H         -5.08511        4.29062        1.95205
H         -5.90761        2.87808        1.25317
C         -3.91091        2.01565        3.00735
H         -4.05621        2.82247        3.74270
H         -3.01401        1.45318        3.30649
H         -4.77797        1.33738        3.08177
