84
Cat483.ts34.5.log	Energy: -2022038.5255936
C         -0.95740        4.20832       -1.08576
H         -0.73045        4.62283       -2.07098
H         -2.01571        4.21645       -0.81350
C          0.01614        4.32079       -0.06015
H          0.99623        4.75015       -0.28294
H         -0.32617        4.49296        0.96628
H          0.11366        2.77284        0.57535
Rh        -0.02994        2.26179       -0.94799
O         -3.16644        1.67611        0.37220
O         -2.62968        0.24341       -1.58485
O         -1.45705       -0.20092        0.68479
O          1.23202       -0.74827       -0.76371
O          3.01431        0.97738       -1.36141
O          2.17294        0.78563        1.05049
P          1.61399        0.83744       -0.49737
P         -1.82344        1.01470       -0.38906
C          0.23099        2.16353       -2.84195
O          0.38146        2.06556       -3.97358
C         -3.03417        2.60011        1.37196
C         -2.12360        2.43344        2.41913
H         -1.49799        1.54096        2.45809
C         -3.85503        3.72870        1.32410
H         -4.55715        3.83340        0.49455
C         -2.02946        3.41509        3.40535
H         -1.31326        3.28450        4.22006
C         -3.75879        4.69533        2.32072
H         -4.40269        5.57695        2.27885
C         -2.84102        4.54708        3.36171
H         -2.76348        5.31002        4.13907
C         -3.76792       -0.53325       -1.55467
C         -5.01250        0.01386       -1.24776
H         -5.08708        1.07133       -0.99939
C         -3.64974       -1.87937       -1.89731
H         -2.66598       -2.27751       -2.14843
C         -6.13908       -0.80527       -1.23787
H         -7.12575       -0.40828       -0.99268
C         -4.77273       -2.69879       -1.88812
H         -4.70469       -3.75968       -2.13439
C         -6.00531       -2.15217       -1.54891
F         -7.08278       -2.93652       -1.52942
C         -2.13053       -1.37362        0.92271
C         -1.48570       -2.56677        0.59904
H         -0.49254       -2.52115        0.14951
C         -3.39843       -1.38066        1.50430
H         -3.88367       -0.43649        1.75381
C         -2.12391       -3.78135        0.83409
H         -1.64811       -4.73174        0.58590
C         -4.04274       -2.59355        1.72685
H         -5.04325       -2.63340        2.16053
C         -3.39965       -3.77820        1.38544
F         -4.02018       -4.93826        1.59600
C          1.97052       -1.71709       -1.39254
C          2.51714       -2.75675       -0.64119
H          2.38293       -2.76529        0.44107
C          2.12103       -1.67908       -2.77931
H          1.67656       -0.85821       -3.34487
C          3.24093       -3.75634       -1.28854
H          3.67499       -4.56841       -0.70064
C          2.85193       -2.68136       -3.41313
H          2.97885       -2.64891       -4.49768
C          3.41747       -3.71972       -2.67155
H          3.99035       -4.50271       -3.17296
C          4.29764        0.82222       -0.89721
C          5.03231       -0.31150       -1.24292
H          4.57604       -1.08203       -1.86439
C          4.87111        1.82526       -0.11439
H          4.28216        2.70789        0.13892
C          6.34049       -0.45192       -0.78683
H          6.93571       -1.33061       -1.04082
C          6.17705        1.68544        0.34688
H          6.64736        2.45214        0.96492
C          6.89578        0.54436        0.00720
F          8.14529        0.40697        0.44815
C          2.39701       -0.33776        1.81308
C          3.70235       -0.73491        2.09642
H          4.54028       -0.16565        1.69380
C          1.31016       -1.04759        2.32259
H          0.30104       -0.71510        2.07822
C          3.92204       -1.86224        2.88474
H          4.93298       -2.19829        3.12144
C          1.52657       -2.17932        3.10339
H          0.69235       -2.75950        3.50176
C          2.83264       -2.57425        3.37330
F          3.04472       -3.65746        4.11959
