100
Cat467.ts34.5.log	Energy: -1497807.4606064
C         -0.83232       -0.43983       -3.98868
H         -0.56302       -1.36649       -4.50136
H         -1.90051       -0.21109       -3.95076
C          0.10715        0.62308       -3.98863
H          1.08697        0.48233       -4.45285
H         -0.26805        1.64942       -4.06666
H          0.31254        1.06734       -2.43013
Rh         0.07134       -0.49191       -2.02740
O         -3.14258        0.39846       -1.94252
C         -2.44902       -0.75901        0.49552
C         -1.76827        1.97111       -0.18657
O          1.89064       -0.19581        0.89425
C          3.30020       -1.53009       -1.03730
C          2.79692        1.35295       -1.00534
P          1.96418       -0.27308       -0.81087
P         -1.81284        0.26782       -0.89251
C          0.07540       -2.37161       -1.98107
O          0.08024       -3.52408       -1.92549
C         -4.44111        0.49859       -1.55016
C         -5.02172        1.75040       -1.32551
H         -4.42154        2.64840       -1.48147
C         -5.20850       -0.66102       -1.40405
H         -4.74754       -1.62705       -1.61832
C         -6.34844        1.83369       -0.90807
H         -6.79513        2.81441       -0.72674
C         -6.53278       -0.56839       -0.98425
H         -7.12397       -1.47921       -0.86157
C         -7.10545        0.67695       -0.72326
H         -8.14349        0.74628       -0.39107
H         -2.87266       -1.65607        0.01182
H         -1.53926       -1.11780        1.00321
C         -3.42134       -0.16518        1.50722
H         -2.89924        0.59663        2.11077
H         -4.24872        0.35751        1.00283
C         -4.00145       -1.22324        2.43455
H         -3.17666       -1.76723        2.92824
H         -4.53993       -1.97446        1.82814
C         -4.94518       -0.65530        3.48429
H         -4.40640        0.10043        4.08357
H         -5.75997       -0.10881        2.97687
C         -5.53125       -1.71403        4.40419
H         -6.20794       -1.27580        5.15360
H         -4.73853       -2.25419        4.94697
H         -6.10557       -2.46282        3.83505
H         -1.57129        2.62323       -1.05451
H         -2.75086        2.25502        0.22261
C         -0.66483        2.12061        0.85259
H         -1.00987        1.71518        1.81793
H          0.19329        1.49263        0.56482
C         -0.17026        3.54652        1.04489
H         -1.00814        4.20565        1.33651
H          0.19159        3.93474        0.07441
C          0.94859        3.64815        2.07326
H          0.57444        3.29405        3.05041
H          1.75344        2.94562        1.79323
C          1.51774        5.04961        2.22101
H          2.33067        5.08286        2.96242
H          0.74425        5.76582        2.54156
H          1.92633        5.41666        1.26529
C          1.13754       -1.00432        1.67323
C          0.65946       -0.47080        2.87651
H          0.90981        0.56239        3.12243
C          0.84188       -2.33059        1.34026
H          1.21476       -2.76394        0.41276
C         -0.11600       -1.25227        3.72668
H         -0.48622       -0.82385        4.66139
C          0.05922       -3.10278        2.19768
H         -0.17243       -4.13348        1.91932
C         -0.42675       -2.57156        3.39030
H         -1.04008       -3.18144        4.05681
H          2.79544       -2.46523       -1.32933
H          3.84329       -1.20255       -1.94204
C          4.25524       -1.78941        0.12034
H          4.76127       -0.85897        0.41979
H          3.67898       -2.10868        1.00422
C          5.29703       -2.84936       -0.21111
H          5.88303       -2.52851       -1.09202
H          4.78660       -3.78088       -0.51705
C          6.24305       -3.14796        0.94370
H          6.74644       -2.21337        1.24899
H          5.65139       -3.46632        1.82011
C          7.28329       -4.20643        0.61486
H          7.95064       -4.40033        1.46826
H          7.91229       -3.89818       -0.23592
H          6.80768       -5.16196        0.34092
H          3.06509        1.41195       -2.07417
H          1.98053        2.08122       -0.86735
C          3.96930        1.71250       -0.10498
H          3.72292        1.43769        0.93348
H          4.85859        1.12112       -0.37991
C          4.31101        3.19549       -0.16888
H          3.40392        3.78237        0.06336
H          4.58667        3.47053       -1.20333
C          5.42529        3.60582        0.78306
H          5.14649        3.30619        1.80897
H          6.33894        3.03335        0.54352
C          5.72678        5.09530        0.75009
H          6.53653        5.36261        1.44576
H          4.83947        5.68612        1.02978
H          6.03317        5.41971       -0.25748
