92
Cat477.ts34.5.log	Energy: -1682918.8617461
C          1.32986       -3.44245       -1.45690
H          1.02229       -3.77752       -2.45081
H          2.40701       -3.29639       -1.32897
C          0.54917       -3.84250       -0.33998
H         -0.37082       -4.41357       -0.49024
H          1.06434       -4.08454        0.59594
H          0.27447       -2.44269        0.50679
Rh         0.14150       -1.72109       -0.93584
O          1.66101        0.24213        1.33926
C          3.49360       -1.07756       -0.14691
C          2.15227        1.23392       -1.16133
O         -1.41335        0.95488       -0.03374
C         -3.32972       -0.82426       -0.88727
C         -2.08802       -1.07064        1.68177
P         -1.69752       -0.71849       -0.06825
P          1.83699       -0.31994       -0.25786
C         -0.21864       -1.30797       -2.74758
O         -0.38880       -1.01720       -3.84882
C          2.10662        1.46255        1.76624
C          3.35725        1.58780        2.37251
H          3.99014        0.70558        2.48009
C          1.28062        2.57768        1.61006
H          0.31320        2.44864        1.12355
C          3.78193        2.83986        2.81531
H          4.76202        2.93885        3.28865
C          1.71594        3.82291        2.05283
H          1.06940        4.69392        1.92169
C          2.96763        3.96008        2.65435
H          3.30745        4.93933        2.99916
C          3.89457       -1.71504        1.03197
H          3.26505       -1.63814        1.92206
C          4.29431       -1.21752       -1.28873
H          3.98734       -0.75031       -2.22860
C          5.08121       -2.44363        1.07526
H          5.37902       -2.92980        2.00871
C          5.47680       -1.94761       -1.23730
H          6.08945       -2.03901       -2.13890
C          5.89703       -2.57013       -0.05402
C          7.18677       -3.33548       -0.00481
H          7.24963       -3.96297        0.89539
H          7.30125       -3.98707       -0.88439
H          8.05217       -2.65206        0.00580
C          3.36717        1.93016       -1.07864
H          4.20545        1.50212       -0.52516
C          1.09173        1.81336       -1.86336
H          0.13539        1.28946       -1.90542
C          3.50685        3.17350       -1.68135
H          4.45794        3.70681       -1.59736
C          1.23834        3.06140       -2.46248
H          0.39335        3.50260       -2.99808
C          2.44504        3.76299       -2.38195
C          2.61281        5.10157       -3.03762
H          3.22091        5.01708       -3.95355
H          1.64434        5.53680       -3.32109
H          3.12784        5.81081       -2.37207
C         -2.29700        1.94477        0.27370
C         -2.56081        2.28466        1.60342
H         -2.07840        1.72446        2.40517
C         -2.89556        2.65803       -0.76803
H         -2.67228        2.36954       -1.79685
C         -3.44178        3.32845        1.88135
H         -3.64909        3.59148        2.92153
C         -3.77002        3.70151       -0.47821
H         -4.23926        4.25447       -1.29558
C         -4.05131        4.03744        0.84646
H         -4.73984        4.85485        1.07182
C         -3.45933       -1.61292       -2.03376
H         -2.59001       -2.17054       -2.39056
C         -4.46409       -0.14044       -0.41610
H         -4.40970        0.46187        0.49220
C         -4.67695       -1.70369       -2.70423
H         -4.75248       -2.33039       -3.59695
C         -5.67387       -0.23158       -1.09299
H         -6.54175        0.31261       -0.70997
C         -5.80251       -1.00899       -2.25259
C         -7.10787       -1.07636       -2.98833
H         -7.95597       -1.17655       -2.29440
H         -7.27485       -0.15596       -3.57222
H         -7.13406       -1.92239       -3.68924
C         -1.10795       -0.75919        2.63831
H         -0.16742       -0.30213        2.31762
C         -3.25894       -1.70567        2.10183
H         -4.02626       -1.98059        1.37563
C         -1.32154       -1.04436        3.97991
H         -0.54948       -0.78467        4.71019
C         -3.45675       -2.00062        3.45113
H         -4.37974       -2.49937        3.75981
C         -2.50123       -1.66865        4.41397
C         -2.71434       -1.97295        5.86748
H         -1.91340       -2.61969        6.25970
H         -2.70693       -1.05132        6.47124
H         -3.67364       -2.48097        6.03829
