74
Cat46.ts34.5.log	Energy: -1487543.2245110
C         -1.31641       -3.32082       -0.91560
H         -1.64691       -3.71436       -1.87994
H         -0.59902       -3.95532       -0.38592
C         -2.22011       -2.53086       -0.15382
H         -3.19304       -2.25092       -0.56651
H         -2.22113       -2.63594        0.93669
H         -1.29480       -1.22107        0.31360
Rh        -0.69578       -1.26602       -1.18213
C          2.64900       -2.60804       -1.20441
O          2.25527       -0.11310       -0.21652
O          1.58051       -2.27257        1.12932
C         -0.33565        2.04144       -2.37671
O         -2.50740        1.56911       -0.93977
O         -0.27152        1.53756        0.33994
P         -0.95939        0.94752       -1.05485
P          1.40534       -1.54866       -0.38248
C         -0.74567       -1.36069       -3.08330
O         -0.75757       -1.39872       -4.23402
H          2.19897       -3.61396       -1.21277
C          2.97540       -2.13466       -2.61152
H          3.46866       -1.15132       -2.59827
H          2.06691       -2.04896       -3.22658
H          3.54603       -2.65873       -0.56656
H          3.65577       -2.84071       -3.10986
C          3.57182        0.06217        0.09705
C          4.30551        0.94295       -0.70303
H          3.81194        1.40802       -1.55923
C          4.17138       -0.54976        1.20155
H          3.58730       -1.22923        1.82225
C          5.63739        1.21098       -0.39913
H          6.20472        1.90170       -1.02769
C          5.50811       -0.27834        1.48911
H          5.97452       -0.75842        2.35285
C          6.24610        0.59953        0.69677
H          7.29149        0.80851        0.93334
C          0.67910       -2.04720        2.13131
C          0.10952       -3.15170        2.76657
H          0.39554       -4.15271        2.43781
C          0.33608       -0.75110        2.52202
H          0.77194        0.10372        2.00364
C         -0.81026       -2.95692        3.79457
H         -1.25586       -3.82307        4.28967
C         -0.58845       -0.56884        3.54861
H         -0.85629        0.44703        3.85015
C         -1.16688       -1.66588        4.18670
H         -1.88907       -1.51636        4.99247
H         -0.53647        1.46747       -3.29622
C         -0.87498        3.45865       -2.49797
H         -0.57412        4.09153       -1.65303
H         -1.97263        3.45610       -2.54394
H          0.76025        2.02079       -2.24636
H         -0.49338        3.92311       -3.41995
C         -3.47698        0.92733       -0.21861
C         -3.26285        0.53534        1.10533
H         -2.30078        0.73046        1.58069
C         -4.69660        0.66819       -0.84336
H         -4.83123        0.97789       -1.88120
C         -4.27425       -0.13020        1.79488
H         -4.09324       -0.45099        2.82370
C         -5.70455        0.01350       -0.13966
H         -6.65881       -0.19001       -0.63152
C         -5.49677       -0.39322        1.17912
H         -6.28640       -0.91537        1.72369
C         -0.01665        2.84978        0.63008
C         -1.04237        3.70309        1.04067
H         -2.06515        3.32716        1.09431
C          1.30184        3.30015        0.55575
H          2.08077        2.59789        0.25343
C         -0.74028        5.02657        1.35397
H         -1.54110        5.69967        1.66939
C          1.58996        4.62555        0.87307
H          2.62175        4.98025        0.81421
C          0.57157        5.49362        1.26728
H          0.80089        6.53256        1.51398
