96
Cat482.ts34.5.log	Energy: -1871671.7231694
C          0.82893       -4.27963       -0.96169
H          0.73823       -4.71539       -1.95943
H          1.83098       -4.34057       -0.52797
C         -0.30719       -4.30243       -0.10690
H         -1.26336       -4.67825       -0.48043
H         -0.15670       -4.48269        0.96330
H         -0.43455       -2.77103        0.46408
Rh         0.01023       -2.28529       -1.01786
O          2.19414       -1.22301        1.41517
O          3.29690       -1.67822       -0.75690
O          1.81325        0.43592       -0.50984
O         -2.03490        0.10110       -2.08011
O         -3.11217       -1.45356       -0.34954
O         -1.43833        0.28231        0.40919
P         -1.64500       -0.83263       -0.77978
P          1.82243       -1.19440       -0.22162
C          0.03355       -2.21094       -2.92754
O          0.04675       -2.13755       -4.07102
C          1.21275       -1.15618        2.36829
C          0.55190        0.04367        2.63086
H          0.78969        0.93220        2.04448
C          0.89974       -2.30952        3.08910
H          1.43324       -3.23422        2.85959
C         -0.42229        0.08550        3.62504
H         -0.94898        1.02329        3.81613
C         -0.07332       -2.25686        4.08500
H         -0.31471       -3.15899        4.65234
C         -0.73613       -1.05932        4.35653
H         -1.49855       -1.01954        5.13791
C          4.53414       -1.17029       -0.42121
C          5.11863       -1.45911        0.80827
H          4.58702       -2.09277        1.51775
C          5.20460       -0.37935       -1.35153
H          4.73381       -0.18043       -2.31531
C          6.35600       -0.90044        1.12124
H          6.80606       -1.11776        2.09397
C          6.43616        0.17242       -1.02175
H          6.94467        0.81181       -1.74852
C          7.02861       -0.06320        0.22563
C          8.32831        0.59092        0.59470
H          8.82397        0.06773        1.42487
H          8.16583        1.63461        0.91357
H          9.02494        0.61695       -0.25662
C          2.78541        1.39325       -0.34492
C          3.01707        2.24815       -1.42035
H          2.43628        2.11238       -2.33499
C          3.50137        1.55204        0.84186
H          3.31833        0.88541        1.68321
C          3.99579        3.23312       -1.32237
H          4.17681        3.89213       -2.17615
C          4.48389        2.53339        0.91572
H          5.05786        2.63333        1.84109
C          4.75989        3.38477       -0.16070
C          5.86311        4.39931       -0.07807
H          5.72542        5.20854       -0.80951
H          6.84191        3.93359       -0.28402
H          5.92346        4.85116        0.92328
C         -3.29575        0.48484       -2.47116
C         -3.72471        1.79213       -2.24801
H         -3.06279        2.49789       -1.74557
C         -4.11690       -0.43539       -3.12307
H         -3.75073       -1.44947       -3.29092
C         -5.00022        2.16901       -2.66403
H         -5.33947        3.19178       -2.48392
C         -5.39053       -0.04714       -3.53145
H         -6.03704       -0.76928       -4.03556
C         -5.83917        1.25360       -3.29876
H         -6.83940        1.55431       -3.61827
C         -3.92777       -0.99765        0.65895
C         -5.11998       -0.35002        0.34681
H         -5.38741       -0.18812       -0.69810
C         -3.56451       -1.20457        1.98912
H         -2.61754       -1.69518        2.22061
C         -5.94161        0.10049        1.37770
H         -6.87197        0.61668        1.12547
C         -4.39433       -0.74177        3.00503
H         -4.09315       -0.89324        4.04537
C         -5.59687       -0.08050        2.72217
C         -6.49889        0.39000        3.82629
H         -7.12608        1.23332        3.50303
H         -5.92455        0.70965        4.70828
H         -7.17733       -0.41551        4.15416
C         -1.64689        1.63595        0.39351
C         -2.69238        2.18101        1.13532
H         -3.35990        1.52137        1.69079
C         -0.78182        2.46205       -0.32309
H          0.03688        2.01096       -0.88376
C         -2.87857        3.56146        1.13488
H         -3.70794        3.98357        1.70915
C         -0.98602        3.83835       -0.31275
H         -0.30620        4.47855       -0.88178
C         -2.03770        4.41534        0.41123
C         -2.23152        5.90393        0.43673
H         -3.26480        6.17177        0.70022
H         -1.99877        6.35776       -0.53794
H         -1.56932        6.37685        1.18130
