96
Cat491.ts34.5.log	Energy: -1871681.7521513
C         -0.82726       -0.28380       -4.01492
H         -0.94835       -1.28163       -4.44309
H         -1.74104        0.31621       -3.98015
C          0.41947        0.38076       -4.16941
H          1.26353       -0.13895       -4.62949
H          0.41780        1.46145       -4.34729
H          0.74300        0.93866       -2.64274
Rh         0.18467       -0.47922       -2.11820
O         -1.95313        2.01759       -1.47838
O         -2.92612       -0.18872       -0.82015
O         -1.19011        0.94380        0.65205
O          2.40615       -1.93103       -0.07620
O          3.40087       -0.15222       -1.52024
O          2.05778        0.40525        0.56204
P          1.96972       -0.52397       -0.80474
P         -1.43897        0.54664       -0.93344
C         -0.04425       -2.38087       -2.10711
O         -0.16391       -3.52119       -2.09767
C         -2.88579        2.76800       -0.79866
C         -2.45873        3.66453        0.17977
H         -1.39385        3.73764        0.40437
C         -4.24003        2.61861       -1.09312
H         -4.54158        1.89705       -1.85322
C         -3.40453        4.41782        0.87099
H         -3.07331        5.11482        1.64447
C         -5.17682        3.37825       -0.39463
H         -6.23969        3.26254       -0.61998
C         -4.76370        4.27699        0.58940
H         -5.50190        4.86755        1.13664
C         -3.09387       -1.53724       -1.00578
C         -2.81087       -2.42622        0.03041
H         -2.45029       -2.03444        0.98349
C         -3.56075       -1.99732       -2.23426
H         -3.77132       -1.27987       -3.02892
C         -2.98800       -3.80023       -0.15038
C         -2.65129       -4.76200        0.95167
H         -1.68315       -5.25363        0.75752
H         -2.58035       -4.24892        1.92100
H         -3.40582       -5.55825        1.03612
C         -3.74300       -3.36631       -2.41572
H         -4.10780       -3.73987       -3.37550
C         -3.45746       -4.25997       -1.38699
H         -3.59822       -5.33237       -1.54490
C         -1.77409        0.39753        1.76349
C         -3.10493        0.67374        2.07024
H         -3.68005        1.32086        1.40630
C         -1.00329       -0.42464        2.58506
H          0.03300       -0.63567        2.31872
C         -3.69748        0.11778        3.20786
C         -5.14387        0.38609        3.50713
H         -5.42356        1.41428        3.23431
H         -5.79387       -0.29128        2.92853
H         -5.37222        0.23466        4.57181
C         -1.58998       -0.97228        3.72342
H         -0.99278       -1.61784        4.37088
C         -2.92333       -0.70764        4.03240
H         -3.37158       -1.14580        4.92808
C          2.05324       -2.34251        1.18449
C          0.99930       -3.24164        1.33923
H          0.44735       -3.57690        0.46009
C          2.78195       -1.89296        2.28616
H          3.60183       -1.19093        2.12779
C          0.67465       -3.69507        2.61671
H         -0.15004       -4.39975        2.74169
C          2.44240       -2.34908        3.55741
H          3.00972       -1.99919        4.42316
C          1.39096       -3.25118        3.72711
H          1.13284       -3.61056        4.72591
C          4.58432       -0.10352       -0.80817
C          5.00510        1.10924       -0.27338
H          4.38211        1.99540       -0.41276
C          5.33973       -1.26349       -0.64753
H          4.97768       -2.20147       -1.06918
C          6.20164        1.18807        0.44787
C          6.65180        2.50274        1.01595
H          7.02221        3.17020        0.22060
H          5.82229        3.02494        1.51640
H          7.46418        2.37034        1.74410
C          6.53188       -1.18819        0.06651
H          7.13460       -2.08892        0.20491
C          6.95813        0.02273        0.61169
H          7.89334        0.06457        1.17606
C          1.72244        1.71814        0.71822
C          1.66415        2.61331       -0.34724
H          1.89747        2.27373       -1.35731
C          1.45771        2.14547        2.02032
H          1.51127        1.42420        2.83653
C          1.29739        3.94809       -0.13392
C          1.14810        4.87432       -1.30465
H          1.97084        4.75215       -2.02508
H          0.20930        4.65887       -1.84241
H          1.11888        5.92652       -0.98917
C          1.11818        3.47401        2.23724
H          0.90785        3.81516        3.25362
C          1.03134        4.37145        1.17084
H          0.75274        5.41234        1.35384
