100
Cat426.ts34.5.log	Energy: -1826602.8920903
C          0.06691       -2.99044       -2.37205
H          0.29893       -3.96807       -1.94156
H         -0.90785       -2.92000       -2.86319
C          1.13246       -2.17704       -2.82105
H          2.16916       -2.50103       -2.69648
H          0.97356       -1.54087       -3.69787
H          0.92012       -0.67268       -2.06595
Rh         0.37401       -1.50753       -0.80347
C         -1.68235        1.12184       -2.11662
O         -3.08965       -0.90287       -1.34151
O         -1.83765        0.37723        0.52276
C          1.10871        0.40342        2.02435
O          3.18961       -0.74024        1.05085
O          2.15449        1.16059       -0.38256
P          1.73205       -0.22481        0.43615
P         -1.57008       -0.29826       -0.97101
C          0.11603       -2.73498        0.62760
O         -0.05434       -3.44210        1.51634
C         -0.55253        1.94348       -2.21799
H          0.36013        1.69669       -1.66841
C         -2.83529        1.43125       -2.84287
H         -3.70758        0.78220       -2.75080
C         -0.60374        3.08247       -3.01656
H          0.26972        3.73552       -3.08513
C         -2.88993        2.56405       -3.66237
C         -4.12587        2.86916       -4.45811
H         -4.20094        3.94028       -4.69450
H         -4.12275        2.32027       -5.41458
H         -5.03511        2.57137       -3.91571
C         -1.76156        3.38961       -3.73023
H         -1.79013        4.28601       -4.35630
C         -3.73987       -1.86424       -0.61077
C         -3.13185       -3.07964       -0.30201
H         -2.12060       -3.26831       -0.66007
C         -5.05860       -1.58495       -0.21370
C         -5.72608       -0.30538       -0.61302
H         -5.14644        0.57228       -0.29224
H         -5.82847       -0.24081       -1.70836
H         -6.72947       -0.23505       -0.17226
C         -3.81419       -4.02324        0.46270
H         -3.32503       -4.96636        0.71607
C         -5.72012       -2.55318        0.54706
H         -6.74380       -2.34925        0.87284
C         -5.10941       -3.75645        0.89801
H         -5.65070       -4.48767        1.50239
C         -2.88880        1.09042        1.02162
C         -3.27396        2.31802        0.48397
H         -2.74944        2.71427       -0.38518
C         -3.50343        0.56290        2.17075
C         -3.01362       -0.72356        2.75699
H         -3.15672       -1.56251        2.05862
H         -1.93458       -0.66724        2.96823
H         -3.54536       -0.95747        3.68890
C         -4.32353        3.02553        1.06920
H         -4.62981        3.98448        0.64494
C         -4.54957        1.29662        2.73537
H         -5.04366        0.90154        3.62719
C         -4.96805        2.51215        2.19184
H         -5.79126        3.06170        2.65388
C          1.28312       -0.33884        3.19509
H          1.89195       -1.24487        3.18493
C          0.33279        1.56717        2.04547
H          0.18724        2.13503        1.12308
C          0.67998        0.09500        4.37437
H          0.81488       -0.47855        5.29455
C         -0.27145        2.01490        3.22248
C         -1.11909        3.25297        3.23821
H         -0.90430        3.87462        4.12060
H         -0.95835        3.86185        2.33798
H         -2.18965        2.99195        3.26779
C         -0.08626        1.25712        4.38711
H         -0.55388        1.58703        5.31906
C          4.17506       -1.44315        0.40195
C          3.89499       -2.51874       -0.43884
H          2.85372       -2.80920       -0.58491
C          5.49632       -1.05349        0.67795
C          5.77658        0.04876        1.65047
H          5.41294        1.01673        1.27722
H          5.26165       -0.13047        2.60634
H          6.85469        0.13643        1.84127
C          4.93907       -3.18893       -1.07434
H          4.71599       -4.02854       -1.73714
C          6.52096       -1.74724        0.02809
H          7.55537       -1.45387        0.22711
C          6.25591       -2.79567       -0.85196
H          7.07932       -3.31509       -1.34719
C          3.27571        1.93286       -0.19980
C          3.38946        2.79809        0.88599
H          2.59782        2.82368        1.63521
C          4.26833        1.85409       -1.18975
C          4.11472        0.90726       -2.33969
H          4.19162       -0.14005       -2.00409
H          3.12791        1.01632       -2.81449
H          4.89343        1.07686       -3.09510
C          4.51729        3.60867        1.00177
H          4.61055        4.28544        1.85405
C          5.38605        2.68154       -1.04845
H          6.17130        2.63633       -1.80779
C          5.51724        3.55121        0.03344
H          6.40301        4.18452        0.11901
