92
Cat470.ts34.5.log	Energy: -1587957.2103478
C          0.54325       -3.36818       -1.52045
H         -0.01968       -3.69698       -2.39728
H          1.62691       -3.31069       -1.65325
C          0.00994       -3.64306       -0.23487
H         -0.97410       -4.11058       -0.14270
H          0.70055       -3.90900        0.57305
H          0.03470       -2.21883        0.57290
Rh        -0.31699       -1.50489       -0.83760
O          2.13064        0.11810        0.78457
O          2.98265       -1.06988       -1.31898
O          1.77477        1.07709       -1.58272
O         -2.41713        0.92913       -0.49995
O         -3.38443       -1.28225        0.37534
O         -1.85650       -0.02647        1.82537
P         -1.97870       -0.49243        0.26117
P          1.64025       -0.34324       -0.76408
C         -1.13353       -1.15804       -2.51879
O         -1.63104       -0.93041       -3.52854
C          3.39600        0.42516        1.18761
C          4.04362       -0.44792        2.06535
H          3.52591       -1.35581        2.37999
C          4.03120        1.59628        0.76840
H          3.50484        2.27246        0.09555
C          5.33135       -0.15572        2.50816
H          5.83522       -0.84401        3.19097
C          5.32376        1.87419        1.20852
H          5.81998        2.78774        0.87183
C          5.98062        1.00118        2.07584
H          6.99308        1.22479        2.41881
C          4.10777       -0.46773       -1.95858
H          4.04995       -0.71529       -3.03216
H          4.05211        0.62688       -1.87334
C          5.39042       -0.98990       -1.35295
H          5.36424       -0.81130       -0.26671
H          5.43918       -2.08387       -1.48957
C          6.62478       -0.32637       -1.94593
H          6.53352        0.76812       -1.82798
H          6.66384       -0.51105       -3.03439
C          7.91590       -0.79692       -1.29638
H          7.91155       -0.58049       -0.21600
H          8.04988       -1.88419       -1.41424
H          8.79627       -0.30309       -1.73494
C          0.63584        1.91618       -1.76182
H          0.67122        2.27248       -2.80389
H         -0.28390        1.32282       -1.63641
C          0.64603        3.07882       -0.79132
H         -0.34406        3.56544       -0.82533
H          0.74948        2.67514        0.23110
C          1.73988        4.10233       -1.06582
H          1.52084        4.61309       -2.01977
H          2.69439        3.57436       -1.23281
C          1.90186        5.12453        0.04635
H          0.96102        5.66816        0.22970
H          2.18901        4.63750        0.99262
H          2.67535        5.87003       -0.19288
C         -3.61492        1.56781       -0.34212
C         -3.90970        2.27075        0.82726
H         -3.18055        2.28984        1.63802
C         -4.52936        1.52868       -1.39555
H         -4.26657        0.96866       -2.29502
C         -5.13353        2.92858        0.93998
H         -5.36718        3.47582        1.85636
C         -5.74614        2.19480       -1.27464
H         -6.46153        2.16420       -2.09994
C         -6.05486        2.89306       -0.10632
H         -7.01204        3.41039       -0.01257
C         -4.31777       -1.34044        1.45644
H         -4.31893       -2.38696        1.80533
H         -3.97077       -0.70683        2.28408
C         -5.70191       -0.93507        0.99946
H         -6.38260       -1.07838        1.85805
H         -5.71268        0.14365        0.77701
C         -6.21200       -1.70971       -0.20611
H         -6.21639       -2.79020        0.02470
H         -5.49445       -1.58135       -1.03271
C         -7.59668       -1.26641       -0.64770
H         -8.34122       -1.41124        0.15217
H         -7.60097       -0.19610       -0.90931
H         -7.94192       -1.82828       -1.52890
C         -0.71874        0.68827        2.29569
H          0.07466        0.67524        1.53330
H         -1.01919        1.73734        2.46021
C         -0.19824        0.07039        3.57395
H          0.63243        0.70576        3.92851
H         -0.98125        0.11638        4.35160
C          0.28787       -1.36178        3.40210
H          1.01706       -1.38327        2.57565
H         -0.55905       -1.98765        3.07490
C          0.90681       -1.93978        4.66344
H          1.78834       -1.35749        4.97813
H          0.19302       -1.93389        5.50323
H          1.23265       -2.98071        4.51439
