70
Cat495.ts34.5.log	Energy: -1251312.4163235
C          0.78089       -3.11465       -1.62251
H          1.42531       -3.97095       -1.40872
H         -0.29154       -3.32809       -1.57951
C          1.24040       -2.13503       -2.54519
H          2.24426       -2.22012       -2.97010
H          0.51306       -1.68641       -3.23091
H          1.00272       -0.70227       -1.78070
Rh         1.45852       -1.45508       -0.42082
O         -1.74295       -0.57185       -0.76208
C         -1.44824       -2.53411        1.18436
C         -0.91358        0.23325        1.75131
O          2.45914        1.73650        0.47655
C          4.33647       -0.00987        0.94097
C          3.70552        0.82545       -1.78656
P          2.92659        0.24904       -0.20580
P         -0.65339       -1.03267        0.44386
C          2.31345       -2.54090        0.86330
O          2.79837       -3.19169        1.68193
C         -3.08838       -0.41506       -0.60881
C         -3.62019        0.75741       -0.06748
H         -2.94298        1.55127        0.24951
C         -3.95098       -1.42053       -1.04998
H         -3.52495       -2.32608       -1.48694
C         -5.00001        0.90060        0.05416
H         -5.40206        1.82164        0.48616
C         -5.32781       -1.26234       -0.92333
H         -5.99066       -2.06192       -1.26630
C         -5.88098       -0.10290       -0.36558
C         -7.36835        0.07297       -0.25908
H         -7.63611        0.75423        0.56154
H         -7.87677       -0.88667       -0.08456
H         -7.78606        0.49864       -1.18710
H         -0.61650       -3.04654        1.69607
C         -2.64290       -2.38760        2.11543
H         -3.47957       -1.85323        1.64371
H         -2.37504       -1.84940        3.03697
H         -1.68984       -3.17820        0.32249
H         -3.01298       -3.38004        2.41755
H         -1.94363        0.17373        2.13471
C          0.10884        0.09327        2.86878
H          1.13035        0.16919        2.46659
H          0.02743       -0.87396        3.39021
H         -0.80557        1.20962        1.25924
H         -0.02381        0.88902        3.61705
C          1.29141        2.37804        0.24601
C          0.52210        2.20161       -0.90741
H          0.84487        1.50930       -1.68419
C          0.84448        3.26230        1.23445
H          1.45235        3.38846        2.13234
C         -0.68925        2.87671       -1.04419
H         -1.29002        2.69964       -1.94019
C         -0.36076        3.93623        1.07691
H         -0.69823        4.61421        1.86610
C         -1.15947        3.75225       -0.06106
C         -2.45743        4.48886       -0.22959
H         -3.15475        3.93248       -0.87321
H         -2.29994        5.47638       -0.69520
H         -2.95133        4.66230        0.73824
H          4.82973       -0.92602        0.57648
C          5.32898        1.12225        1.14193
H          4.81479        2.05100        1.42705
H          5.91558        1.31952        0.23265
H          3.86170       -0.28921        1.89582
H          6.04240        0.86755        1.94076
H          3.00825        0.53514       -2.58724
C          4.06482        2.29966       -1.90289
H          4.77132        2.62303       -1.12762
H          3.17163        2.93506       -1.81628
H          4.59062        0.17835       -1.91809
H          4.52402        2.50165       -2.88316
