106
Cat441.ts34.5.log	Energy: -1780838.8017168
C         -1.10438        0.59383       -3.09029
H         -1.08310       -0.17600       -3.86633
H         -2.09889        0.99140       -2.86714
C          0.02833        1.44141       -2.94883
H          0.91580        1.28040       -3.56610
H         -0.14107        2.49247       -2.68942
H          0.38762        1.40719       -1.28467
Rh        -0.01854       -0.14674       -1.38044
C         -2.44150        2.05929       -0.21611
O         -3.05062       -0.51983        0.18203
O         -1.27799        0.47251        1.69742
C          1.50215       -0.98561        1.64683
O          2.94070       -1.54616       -0.45013
O          2.70876        0.93741        0.02813
P          1.79527       -0.42369       -0.07486
P         -1.68932        0.40782        0.10951
C         -0.07768       -1.94061       -1.97305
O         -0.10656       -3.04153       -2.32413
C         -1.61401        3.16912        0.06264
O         -0.47176        2.88731        0.71483
C          0.61899        3.76311        0.64298
H          1.49373        3.17354        0.94148
H          0.77341        4.12959       -0.38604
H          0.49529        4.62991        1.31646
C         -3.61714        2.29352       -0.96263
O         -4.34413        1.22492       -1.33152
C         -5.48088        1.39688       -2.12567
H         -5.87626        0.39132       -2.31875
H         -5.24152        1.87712       -3.09097
H         -6.25721        1.99218       -1.61367
C         -3.97698        3.59806       -1.33581
H         -4.89386        3.77938       -1.89446
C         -1.96059        4.46862       -0.32059
H         -1.31353        5.31086       -0.07669
C         -3.15164        4.66686       -1.00823
H         -3.44128        5.67760       -1.30559
C         -2.98468       -1.89826       -0.11646
H         -1.93904       -2.25271       -0.06289
H         -3.55218       -2.42625        0.66924
C         -3.56295       -2.19267       -1.48403
H         -4.59445       -1.80192       -1.52123
H         -2.98503       -1.61975       -2.22858
C         -3.54017       -3.67397       -1.82766
H         -4.11652       -4.23638       -1.07078
H         -2.50221       -4.04195       -1.75912
C         -4.08785       -3.97220       -3.21386
H         -5.13158       -3.63255       -3.31463
H         -3.49719       -3.45776       -3.98861
H         -4.06449       -5.04936       -3.43884
C         -2.06720        1.04471        2.72167
H         -1.37259        1.20538        3.56331
H         -2.43987        2.03381        2.40354
C         -3.22158        0.16241        3.16330
H         -3.74216        0.67892        3.99006
H         -3.94286        0.07897        2.33523
C         -2.78445       -1.22599        3.60484
H         -2.12129       -1.13856        4.48319
H         -2.15591       -1.66553        2.81398
C         -3.94763       -2.15018        3.92143
H         -4.57834       -1.74694        4.73071
H         -4.59685       -2.28581        3.04085
H         -3.60134       -3.14698        4.23596
C          1.05006       -2.31419        1.80156
O          0.95470       -3.04150        0.67402
C          0.40745       -4.32934        0.71510
H          0.36097       -4.67388       -0.32504
H          1.03543       -5.02120        1.30265
H         -0.61326       -4.32394        1.13594
C          1.48146       -0.14975        2.77864
O          1.80639        1.14704        2.60211
C          1.72432        2.03051        3.68199
H          2.00552        3.01924        3.29740
H          2.41827        1.75677        4.49599
H          0.69950        2.08732        4.08634
C          1.12576       -0.65420        4.03713
H          1.13355       -0.01228        4.91632
C          0.69253       -2.82220        3.05542
H          0.36634       -3.85489        3.16809
C          0.74855       -1.98443        4.16180
H          0.47328       -2.37381        5.14485
C          3.20903       -1.94298       -1.78213
H          3.06683       -3.03617       -1.83150
H          2.47519       -1.47994       -2.46489
C          4.62033       -1.56451       -2.18143
H          4.77210       -1.86365       -3.23379
H          4.70759       -0.46410       -2.16066
C          5.69893       -2.18393       -1.30407
H          5.65484       -3.28325       -1.40108
H          5.46266       -1.97024       -0.24851
C          7.09732       -1.68901       -1.63429
H          7.36492       -1.90599       -2.68131
H          7.17447       -0.59794       -1.49686
H          7.85842       -2.15885       -0.99281
C          4.00160        0.95989        0.61412
H          3.90036        1.28504        1.66240
H          4.43556       -0.05195        0.61021
C          4.88725        1.91390       -0.15857
H          5.88861        1.89745        0.30773
H          5.01761        1.53214       -1.18613
C          4.36126        3.34052       -0.21224
H          4.22013        3.71233        0.81915
H          3.35929        3.32354       -0.66995
C          5.26844        4.28589       -0.98205
H          6.27187        4.34013       -0.52927
H          5.39759        3.95103       -2.02392
H          4.86155        5.30829       -1.01125
