100
Cat547.ts34.5.log	Energy: -1622300.0156916
C          2.26664        2.65535       -2.10829
H          2.40817        3.68563       -1.77176
H          3.19519        2.14257       -2.37740
C          1.07720        2.34276       -2.83696
H          0.30671        3.10812       -2.96641
H          1.15593        1.67665       -3.70417
H          0.57171        0.95013       -2.14842
Rh         0.98372        1.62808       -0.73501
O          2.54103       -1.48495       -1.15202
C          4.23106        0.30523       -0.24241
C          2.22164       -0.87704        1.45648
O         -0.88934       -0.13225        1.34797
C         -2.23512        2.11919        0.58729
C         -1.97605       -0.12970       -1.20751
P         -1.01966        0.87864       -0.00612
P          2.43822       -0.07724       -0.18392
C          1.06520        2.99029        0.57605
O          1.08739        3.79914        1.39720
C          1.44445       -2.04160       -1.71915
C          1.02973       -1.64411       -2.99504
H          1.59559       -0.86756       -3.51146
C          0.74483       -3.05437       -1.05494
H          1.08879       -3.37175       -0.06875
C         -0.07342       -2.24254       -3.59790
H         -0.40928       -1.94665       -4.59342
C         -0.35960       -3.65931       -1.65258
H         -0.91216       -4.45914       -1.15565
C         -0.75952       -3.23974       -2.91519
F         -1.82888       -3.80494       -3.48098
H          4.35579        1.22818        0.34960
H          4.41248        0.59623       -1.28916
C          5.19496       -0.78359        0.20149
H          5.02995       -1.00228        1.26983
H          4.96601       -1.71553       -0.34409
C          6.67512       -0.43833        0.00731
H          6.86299        0.52392        0.52066
C          7.55264       -1.49819        0.66387
H          7.32698       -1.60088        1.73690
H          8.62176       -1.25368        0.56618
H          7.39207       -2.48312        0.19436
C          7.04419       -0.26698       -1.46227
H          8.11329       -0.03035       -1.57683
H          6.47685        0.54325       -1.94422
H          6.84522       -1.19494       -2.02429
H          2.93499       -1.71321        1.54076
H          1.20358       -1.29302        1.43994
C          2.36349        0.10387        2.61082
H          3.35490        0.58854        2.56649
H          1.62294        0.91219        2.48579
C          2.19568       -0.51870        4.00006
H          2.93196       -1.34051        4.08810
C          2.51430        0.51245        5.07679
H          3.53301        0.91504        4.96262
H          2.43350        0.07942        6.08594
H          1.81383        1.36235        5.02077
C          0.80559       -1.10707        4.21033
H          0.71229       -1.55131        5.21344
H          0.56649       -1.89220        3.47807
H          0.03372       -0.32684        4.11373
C         -1.89003       -0.89441        1.87085
C         -2.02921       -2.22347        1.46289
H         -1.34785       -2.61597        0.70738
C         -2.74320       -0.37518        2.84793
H         -2.60431        0.65317        3.18501
C         -3.03958       -3.01892        1.99463
H         -3.17337       -4.05589        1.68125
C         -3.75585       -1.16649        3.38445
H         -4.43640       -0.78130        4.14588
C         -3.89791       -2.47732        2.94477
F         -4.87011       -3.23414        3.45264
H         -1.77297        2.60195        1.46515
H         -3.14350        1.60116        0.93072
C         -2.54830        3.15887       -0.48067
H         -1.59475        3.57726       -0.84550
H         -3.01869        2.67110       -1.35458
C         -3.45472        4.29866       -0.01035
H         -2.96718        4.76450        0.86668
C         -3.57209        5.35895       -1.09895
H         -2.58358        5.74645       -1.39036
H         -4.18440        6.21131       -0.76632
H         -4.04685        4.94137       -2.00278
C         -4.83162        3.80533        0.42080
H         -5.47119        4.64245        0.74064
H         -4.77625        3.09537        1.25982
H         -5.34314        3.29656       -0.41407
H         -1.42274       -1.08140       -1.27236
H         -1.79557        0.36725       -2.17339
C         -3.46394       -0.37096       -0.97874
H         -3.66024       -0.60361        0.07815
H         -4.03069        0.55220       -1.19510
C         -4.02728       -1.51386       -1.82768
H         -3.41512       -2.40990       -1.61374
C         -5.46232       -1.82104       -1.41900
H         -5.52690       -2.07695       -0.34963
H         -5.87148       -2.66560       -1.99467
H         -6.11672       -0.95068       -1.59471
C         -3.92448       -1.23181       -3.32165
H         -4.30266       -2.08027       -3.91122
H         -2.88525       -1.05517       -3.63590
H         -4.51570       -0.34060       -3.59283
