82
Cat575.ts34.5.log	Energy: -1349919.4956286
C         -1.56815       -1.32935        3.01340
H         -1.40801       -0.85293        3.98392
H         -2.62141       -1.48445        2.76028
C         -0.60588       -2.28735        2.56961
H          0.29562       -2.45781        3.16490
H         -0.96159       -3.20104        2.07934
H         -0.31930       -1.87584        1.04265
Rh        -0.36962       -0.32764        1.54413
O         -2.20248       -0.83390       -1.39422
C         -3.77300       -0.02214        0.57761
C         -2.05998        1.76371       -0.85613
O          1.96863        0.56156       -0.91213
C          3.06005        0.47401        1.56128
C          2.31118       -1.85499        0.03297
P          1.67728       -0.22233        0.56129
P         -2.03490        0.13421       -0.00583
C         -0.09449        1.19008        2.62319
O          0.09548        2.13254        3.26197
C         -1.27455       -1.73119       -1.81481
C         -0.25983       -1.32810       -2.68190
H         -0.20404       -0.27452       -2.96116
C         -1.39606       -3.07524       -1.41997
C         -2.51594       -3.48421       -0.51405
H         -2.48495       -4.56172       -0.30259
H         -2.47246       -2.94298        0.44353
H         -3.49204       -3.24452       -0.96465
C          0.64316       -2.26276       -3.18321
H          1.43348       -1.94443       -3.86715
C         -0.47299       -3.99336       -1.92800
H         -0.55782       -5.04325       -1.63404
C          0.53734       -3.60000       -2.80586
H          1.23813       -4.34061       -3.19767
H         -3.86085       -1.05777        0.94646
H         -3.85110        0.61694        1.47435
C         -4.88197        0.27200       -0.42270
H         -4.68945       -0.29952       -1.34509
H         -4.85223        1.33641       -0.70934
C         -6.26208       -0.06501        0.12142
H         -6.33948       -1.13397        0.37784
H         -6.48462        0.50883        1.03546
H         -7.05084        0.15872       -0.61308
H         -1.07926        1.88034       -1.34594
H         -2.81534        1.70393       -1.65703
C         -2.32638        2.94492        0.06700
H         -1.51458        3.01584        0.80900
H         -3.24889        2.77082        0.64751
C         -2.45479        4.25512       -0.69493
H         -1.54902        4.45656       -1.28681
H         -3.30828        4.22687       -1.39127
H         -2.60866        5.10432       -0.01151
C          1.75288        1.86879       -1.19366
C          1.30570        2.80196       -0.25544
H          1.08730        2.49084        0.76468
C          2.02549        2.26267       -2.51944
C          2.55103        1.25992       -3.49961
H          3.53329        0.87564       -3.18035
H          1.88909        0.38507       -3.57310
H          2.66149        1.70319       -4.49851
C          1.12307        4.13333       -0.62636
H          0.77566        4.85109        0.12033
C          1.82214        3.59944       -2.86358
H          2.03127        3.91086       -3.89086
C          1.37473        4.53823       -1.93304
H          1.23075        5.57948       -2.22894
H          3.95738        0.53987        0.92417
H          2.78065        1.50719        1.82265
C          3.33020       -0.32261        2.83168
H          3.70459       -1.32664        2.56752
H          2.37368       -0.48203        3.35922
C          4.32313        0.36556        3.75529
H          5.29134        0.52852        3.25551
H          3.94615        1.34942        4.07650
H          4.51022       -0.23220        4.66026
H          2.28817       -2.47617        0.94495
H          1.53398       -2.26692       -0.62943
C          3.67443       -1.90032       -0.63964
H          4.44417       -1.48711        0.03408
H          3.65470       -1.24229       -1.52244
C          4.06542       -3.31240       -1.04833
H          4.12106       -3.98183       -0.17476
H          3.32579       -3.73971       -1.74284
H          5.04714       -3.33090       -1.54576
