98
Cat506.ts34.5.log	Energy: -1732223.7474598
C          0.47810       -2.78633       -2.38416
H          1.10450       -3.63712       -2.10343
H         -0.58143       -3.02110       -2.52362
C          1.06694       -1.74767       -3.15102
H          2.12858       -1.79196       -3.40862
H          0.45778       -1.25946       -3.91919
H          0.72284       -0.32709       -2.35750
Rh         0.83378       -1.18609       -0.98159
O         -1.98223        0.70714       -1.17151
C         -2.58756       -1.92752       -1.21578
C         -1.92872       -0.63186        1.22863
O          2.46359        0.66353        1.38661
C          3.40951        1.21236       -1.10477
C          0.98043        2.21247       -0.09040
P          1.91392        0.64893       -0.20465
P         -1.39060       -0.73851       -0.51441
C          1.43705       -2.47484        0.27827
O          1.70607       -3.33316        0.99416
C         -3.03269        1.41675       -0.66300
C         -4.29792        1.32820       -1.24108
H         -4.45594        0.65950       -2.08797
C         -2.83080        2.26558        0.42845
H         -1.84010        2.32052        0.88016
C         -5.34964        2.08664       -0.72657
H         -6.33800        2.00798       -1.18826
C         -3.88814        3.01284        0.93101
H         -3.71387        3.66543        1.79164
C         -5.16910        2.93966        0.36577
C         -6.29936        3.76251        0.91390
H         -7.25968        3.48230        0.45833
H         -6.14214        4.83703        0.72317
H         -6.39377        3.64003        2.00428
C         -3.07504       -1.74198       -2.51377
H         -2.83686       -0.81850       -3.04757
C         -2.86726       -3.13608       -0.56405
H         -2.47369       -3.31582        0.44011
C         -3.85026       -2.72321       -3.12829
H         -4.22539       -2.55512       -4.14191
C         -3.63906       -4.11182       -1.18497
H         -3.84893       -5.04574       -0.65549
C         -4.15170       -3.92298       -2.47581
C         -5.00449       -4.97309       -3.12510
H         -4.57966       -5.97875       -2.98542
H         -6.01681       -4.98642       -2.68792
H         -5.11252       -4.79489       -4.20431
C         -3.27401       -0.71663        1.61702
H         -4.04564       -0.91515        0.86999
C         -0.96436       -0.36444        2.20322
H          0.08461       -0.29539        1.90719
C         -3.63568       -0.53226        2.94508
H         -4.69043       -0.59279        3.22768
C         -1.33415       -0.17755        3.53266
H         -0.56643        0.03464        4.28211
C         -2.67321       -0.25714        3.92691
C         -3.07422       -0.07776        5.36121
H         -3.30707       -1.04933        5.82786
H         -2.27223        0.38888        5.95026
H         -3.97568        0.54715        5.45010
C          3.08246       -0.39931        1.97650
C          2.63320       -0.79909        3.23494
H          1.81170       -0.25207        3.70057
C          4.14890       -1.07093        1.37674
H          4.51894       -0.74473        0.40441
C          3.22721       -1.88285        3.87189
H          2.85801       -2.19231        4.85360
C          4.72874       -2.15649        2.02642
H          5.55551       -2.68283        1.54148
C          4.27539       -2.59306        3.27524
C          4.86772       -3.80320        3.93635
H          4.80745       -3.73656        5.03255
H          5.92351       -3.93920        3.65977
H          4.32915       -4.71677        3.63301
C          4.00993        0.36211       -2.03356
H          3.55089       -0.61337       -2.21743
C          3.99864        2.45594       -0.84170
H          3.53804        3.13348       -0.11821
C          5.17532        0.74603       -2.69448
H          5.63423        0.06818       -3.41962
C          5.16267        2.83122       -1.49984
H          5.61356        3.80415       -1.28379
C          5.77058        1.98526       -2.44021
C          7.01658        2.41438       -3.15715
H          7.77833        2.77912       -2.45094
H          7.45437        1.58971       -3.73658
H          6.80405        3.23960       -3.85641
C          0.88197        2.95478        1.08924
H          1.37305        2.59197        1.99318
C          0.34719        2.68768       -1.24486
H          0.39420        2.10533       -2.16819
C          0.16356        4.15072        1.10715
H          0.09095        4.71766        2.03967
C         -0.36145        3.88099       -1.21814
H         -0.86133        4.22852       -2.12611
C         -0.47308        4.63223       -0.04006
C         -1.30811        5.87659       -0.00519
H         -1.16711        6.48463       -0.91125
H         -2.37843        5.61355        0.04731
H         -1.07311        6.49975        0.86937
