92
Cat594.ts34.5.log	Energy: -2259564.2765344
C         -1.58570        0.52355       -2.81211
H         -1.02512        1.02535       -3.60425
H         -2.07613       -0.40914       -3.10451
C         -2.13314        1.29449       -1.76174
H         -1.96654        2.37582       -1.73961
H         -3.09172        0.98967       -1.33036
H         -1.54941        0.83364       -0.35993
Rh        -0.21831        0.27138       -1.12806
O         -2.44093       -2.21531       -0.69831
C         -0.12466       -3.18991       -1.48385
C         -0.58133       -2.50417        1.27978
O          1.69392        1.73873        1.37937
C          1.91470        3.11001       -0.96500
C         -0.42371        3.21736        0.65634
P          0.77393        2.00671       -0.02672
P         -0.80145       -1.85913       -0.42947
C          1.24726       -0.27737       -2.16701
O          2.14761       -0.64159       -2.78178
C         -3.44500       -1.40428       -0.28633
C         -4.56360       -1.28634       -1.11755
H         -4.58759       -1.85171       -2.05092
C         -3.40075       -0.69634        0.91885
H         -2.55090       -0.81587        1.59069
C         -5.61303       -0.44451       -0.76767
H         -6.48346       -0.34119       -1.41738
C         -4.44241        0.16135        1.26234
H         -4.40253        0.73224        2.19124
C         -5.54103        0.29169        0.41608
Cl        -6.83194        1.36838        0.83998
C         -0.90809       -3.70327       -2.52507
H         -1.94033       -3.36656       -2.62726
C          1.21382       -3.61114       -1.33106
C          2.10545       -3.09903       -0.23843
H          1.88052       -3.58449        0.72430
H          1.98902       -2.01668       -0.07915
H          3.16182       -3.29191       -0.46973
C         -0.38967       -4.64316       -3.40997
H         -1.01558       -5.03727       -4.21401
C          1.71078       -4.55554       -2.23663
H          2.74722       -4.88624       -2.12771
C          0.92693       -5.07294       -3.26354
H          1.34835       -5.80787       -3.95349
C          0.10208       -1.65515        2.15474
H          0.47055       -0.70364        1.76392
C         -1.04757       -3.76040        1.73269
C         -1.74412       -4.75098        0.84739
H         -1.06162       -5.13030        0.07102
H         -2.59330       -4.29827        0.31911
H         -2.10423       -5.60695        1.43399
C          0.32880       -2.01114        3.48047
H          0.87096       -1.33594        4.14513
C         -0.81725       -4.09183        3.07322
H         -1.17662       -5.05665        3.44133
C         -0.14223       -3.23624        3.94158
H          0.01827       -3.53439        4.98060
C          2.68985        0.82234        1.42589
C          2.97902        0.25052        2.66949
H          2.41042        0.57865        3.54164
C          3.43018        0.43672        0.30365
H          3.25082        0.90264       -0.66473
C          3.95736       -0.72923        2.78507
H          4.16993       -1.19200        3.75001
C          4.41046       -0.54524        0.41672
H          4.97359       -0.85909       -0.46336
C          4.65930       -1.13784        1.65065
Cl         5.83851       -2.40393        1.77465
C          1.90461        2.96764       -2.35767
H          1.23969        2.21834       -2.79446
C          2.74397        4.08882       -0.36652
C          2.80794        4.34168        1.11200
H          3.40830        3.57234        1.62096
H          1.81334        4.32459        1.57729
H          3.27086        5.31855        1.30884
C          2.70714        3.75643       -3.17701
H          2.68039        3.62483       -4.26085
C          3.54710        4.86483       -1.21114
H          4.19451        5.62287       -0.76181
C          3.53977        4.70650       -2.59493
H          4.18271        5.33423       -3.21678
C         -0.66932        4.37498       -0.09562
H         -0.05457        4.58626       -0.97323
C         -1.21969        2.94350        1.79175
C         -1.03079        1.71808        2.63211
H         -0.06946        1.74289        3.16441
H         -1.01633        0.81781        2.00194
H         -1.83921        1.61728        3.36909
C         -1.68168        5.26406        0.25549
H         -1.85371        6.15808       -0.34801
C         -2.22472        3.85668        2.12881
H         -2.84115        3.65220        3.00852
C         -2.46348        5.00354        1.37609
H         -3.26271        5.68961        1.66602
