104
Cat545.ts34.5.log	Energy: -1906008.8887530
C         -1.37134       -0.77607       -3.77971
H         -1.18236       -1.74717       -4.24498
H         -2.43062       -0.50473       -3.73928
C         -0.40858        0.26343       -3.96870
H          0.52478        0.04604       -4.49599
H         -0.76795        1.28204       -4.15238
H         -0.23039        0.90228       -2.45566
Rh        -0.27820       -0.63070       -1.94327
O         -1.52179        0.79344        0.80222
C         -3.50305        0.74861       -1.15559
C         -2.81426       -1.58061        0.44088
O          1.63116       -1.45310        0.47918
C          3.12609       -0.19621       -1.52119
C          1.57913        1.21923        0.59114
P          1.50000       -0.18252       -0.60846
P         -2.02026       -0.19630       -0.49816
C          0.29769       -2.44065       -2.02292
O          0.71968       -3.50965       -2.09657
C         -2.31236        1.55624        1.60728
C         -2.43295        2.92364        1.33485
H         -1.88996        3.34298        0.48616
C         -2.95016        1.02220        2.73217
H         -2.83797       -0.03452        2.97259
C         -3.21126        3.74119        2.14954
H         -3.31408        4.80929        1.95021
C         -3.73021        1.83483        3.55060
H         -4.23912        1.43212        4.42803
C         -3.86037        3.18389        3.24509
F         -4.60882        3.96158        4.02642
H         -3.30896        1.80016       -0.89507
H         -3.40443        0.67990       -2.24866
C         -4.87061        0.33435       -0.70135
C         -5.47571        0.97736        0.38457
H         -4.95739        1.80919        0.86558
C         -5.55431       -0.72180       -1.34183
C         -4.97991       -1.40597       -2.54998
H         -3.94668       -1.75275       -2.39261
H         -4.95299       -0.72606       -3.41803
H         -5.58462       -2.27790       -2.83426
C         -6.72119        0.57803        0.86116
H         -7.16838        1.09655        1.71246
C         -6.80298       -1.11256       -0.84814
H         -7.33064       -1.93387       -1.34107
C         -7.38631       -0.47934        0.24691
H         -8.36202       -0.80790        0.61244
H         -3.44901       -1.14579        1.22752
H         -3.50429       -2.06753       -0.25946
C         -1.80746       -2.55342        0.98226
C         -1.05548       -2.22808        2.11666
H         -1.20739       -1.26068        2.59824
C         -1.57736       -3.78546        0.33775
C         -2.35726       -4.18896       -0.88100
H         -3.43329       -4.28838       -0.66088
H         -2.00424       -5.15347       -1.26973
H         -2.25454       -3.44709       -1.68846
C         -0.09504       -3.09573        2.62535
H          0.48324       -2.81531        3.50863
C         -0.59833       -4.64088        0.85354
H         -0.41042       -5.59030        0.34523
C          0.14014       -4.30861        1.98562
H          0.90271       -4.99402        2.36289
C          2.72730       -1.87343        1.15953
C          3.08993       -1.29632        2.37954
H          2.48693       -0.48551        2.78953
C          3.45571       -2.95625        0.65820
H          3.12252       -3.42730       -0.26867
C          4.20538       -1.76396        3.06935
H          4.51171       -1.32447        4.02027
C          4.57035       -3.42937        1.34510
H          5.15593       -4.27072        0.97034
C          4.93885       -2.81882        2.53877
F          6.00815       -3.26544        3.19734
H          3.40145       -1.26347       -1.52912
H          2.82906        0.03940       -2.55115
C          4.28762        0.65001       -1.08898
C          5.18895        0.17807       -0.12574
H          5.02335       -0.80266        0.32334
C          4.51847        1.90676       -1.69022
C          3.61167        2.44733       -2.75667
H          3.62745        1.81262       -3.65847
H          3.91924        3.45830       -3.05494
H          2.56691        2.50767       -2.41670
C          6.30036        0.92492        0.25598
H          6.98799        0.52984        1.00722
C          5.63960        2.64372       -1.29241
H          5.81757        3.61752       -1.75654
C          6.52674        2.16750       -0.33054
H          7.39409        2.76627       -0.04257
H          0.70052        1.02671        1.22800
H          2.48601        1.04963        1.18462
C          1.54949        2.62534        0.06217
C          0.52592        3.03460       -0.80126
H         -0.24148        2.30903       -1.07431
C          2.52522        3.56391        0.46050
C          3.58328        3.22323        1.46839
H          4.18962        2.35948        1.16004
H          3.13452        2.97954        2.44562
H          4.26742        4.06910        1.61757
C          0.48212        4.32599       -1.32042
H         -0.32226        4.61303       -2.00240
C          2.47016        4.85517       -0.07656
H          3.23270        5.57922        0.22323
C          1.47085        5.23985       -0.96697
H          1.45897        6.25513       -1.37064
