98
Cat573.ts34.5.log	Energy: -1732223.2470963
C         -0.90864       -2.62628        2.57154
H         -0.89286       -2.34343        3.62729
H         -1.83192       -3.12711        2.26161
C          0.32421       -3.01368        1.95975
H          1.25930       -2.92450        2.52022
H          0.32352       -3.87211        1.27864
H          0.31183       -2.22703        0.56136
Rh        -0.27456       -0.95468        1.38542
O         -2.19261       -1.74667       -1.42483
C         -3.71004       -1.30626        0.71134
C         -2.49691        0.85134       -0.83723
O          0.81577        1.46368       -0.59841
C          2.66154        1.03571        1.47181
C          2.38166       -0.79160       -0.78355
P          1.39108        0.21925        0.39405
P         -2.10390       -0.77098       -0.02594
C         -0.45572        0.26550        2.81642
O         -0.52004        1.01392        3.69049
C         -1.08503       -2.14251       -2.10790
C         -0.48407       -1.28959       -3.03367
H         -0.90421       -0.29382       -3.18032
C         -0.59783       -3.44486       -1.90344
C         -1.31837       -4.36739       -0.97009
H         -1.51618       -3.88450       -0.00263
H         -2.30026       -4.64872       -1.38435
H         -0.74543       -5.28834       -0.79519
C          0.62775       -1.71521       -3.75860
H          1.09445       -1.04333       -4.48266
C          0.52854       -3.84290       -2.62964
H          0.92451       -4.85053       -2.47504
C          1.14429       -2.99190       -3.54726
H          2.02343       -3.32848       -4.10083
H         -3.70339       -0.86908        1.72165
H         -3.57627       -2.39279        0.84983
C         -5.00750       -1.00893        0.01710
C         -5.24029       -1.37541       -1.31590
H         -4.45192       -1.88555       -1.87196
C         -6.03052       -0.35506        0.71529
H         -5.86103       -0.05537        1.75277
C         -6.45433       -1.07785       -1.93206
H         -6.61455       -1.36573       -2.97416
C         -7.24742       -0.06484        0.10285
H         -8.02972        0.44784        0.66804
C         -7.46260       -0.42078       -1.22754
H         -8.41399       -0.19044       -1.71291
H         -3.26220        0.65298       -1.60164
H         -1.55800        1.14007       -1.33407
C         -2.94150        1.92107        0.11409
C         -2.02992        2.52373        0.98948
H         -0.98438        2.22180        0.94318
C         -4.27814        2.33617        0.15233
H         -4.99893        1.88916       -0.53559
C         -2.44511        3.49363        1.89746
H         -1.71753        3.94355        2.57708
C         -4.69497        3.31125        1.05612
H         -5.74272        3.62194        1.06917
C         -3.78181        3.88775        1.93811
H         -4.10967        4.64920        2.64993
C          1.20766        2.74566       -0.83275
C          1.40447        3.66155        0.20274
H          1.25813        3.34764        1.23621
C          1.31879        3.14699       -2.17746
C          1.02302        2.17871       -3.28079
H          1.55953        1.22836       -3.14424
H         -0.05159        1.93590       -3.30689
H          1.29918        2.59880       -4.25728
C          1.76648        4.97504       -0.08556
H          1.92123        5.68216        0.73245
C          1.68225        4.47097       -2.43682
H          1.77870        4.79127       -3.47786
C          1.91592        5.38194       -1.40832
H          2.20027        6.41012       -1.64158
H          2.10486        1.61165        2.22600
H          3.26531        1.73773        0.87943
C          3.53859        0.00832        2.13355
C          4.85926       -0.17974        1.70917
H          5.26133        0.44238        0.90653
C          3.05156       -0.78770        3.17993
H          2.02854       -0.63997        3.53087
C          5.66478       -1.15333        2.29669
H          6.69161       -1.28428        1.94704
C          3.85659       -1.76109        3.76736
H          3.46062       -2.36843        4.58513
C          5.16434       -1.95325        3.32204
H          5.79564       -2.71693        3.78274
H          1.67879       -0.97193       -1.61410
H          2.47285       -1.76165       -0.27236
C          3.72749       -0.36022       -1.28782
C          4.74160       -1.32147       -1.39899
H          4.52926       -2.35346       -1.10777
C          4.02631        0.95640       -1.65712
H          3.26752        1.73605       -1.58796
C          6.01345       -0.97988       -1.84914
H          6.78745       -1.74811       -1.91979
C          5.30143        1.30398       -2.10177
H          5.50860        2.34190       -2.37356
C          6.30226        0.33951       -2.19733
H          7.30191        0.61326       -2.54274
