90
Cat510.ts34.5.log	Energy: -1822365.3428913
C         -0.90646       -4.08022       -1.44455
H         -0.61874       -4.94618       -0.84362
H         -1.98387       -3.96754       -1.59503
C         -0.00619       -3.61842       -2.44077
H          0.98117       -4.07701       -2.53867
H         -0.41437       -3.24824       -3.38711
H          0.11362       -1.98222       -2.18498
Rh         0.03698       -2.33288       -0.60524
O         -2.39638       -0.09590       -1.48241
O         -3.19667       -1.83157        0.21049
O         -1.60367        0.05266        0.94274
O          2.30546       -0.70808        1.13689
O          3.02554       -1.09333       -1.29871
O          1.32085        0.70861       -0.75274
P          1.67801       -0.86281       -0.37581
P         -1.80723       -1.06053       -0.27148
C          0.41106       -3.21632        1.04686
O          0.62257       -3.71251        2.05839
C         -2.71649        1.23910       -1.39827
C         -4.04862        1.64355       -1.39171
H         -4.84234        0.89775       -1.44148
C         -1.69247        2.18288       -1.33700
H         -0.65816        1.83920       -1.34986
C         -4.34632        3.00199       -1.29920
H         -5.39445        3.31339       -1.28443
C         -2.00771        3.53331       -1.23271
H         -1.19544        4.26206       -1.16067
C         -3.33942        3.96994       -1.20867
C         -3.66968        5.43195       -1.12001
H         -4.69117        5.59309       -0.74664
H         -3.60142        5.91476       -2.10932
H         -2.97387        5.96207       -0.45274
C         -4.48929       -1.51860       -0.12737
C         -4.95863       -1.82790       -1.40502
H         -4.27974       -2.28682       -2.12562
C         -5.33349       -0.93239        0.81510
H         -4.95219       -0.70514        1.81071
C         -6.27440       -1.52558       -1.74666
H         -6.63708       -1.76016       -2.75018
C         -6.64905       -0.63750        0.46291
H         -7.30707       -0.17293        1.20102
C         -7.12343       -0.92475       -0.81663
H         -8.15412       -0.68609       -1.08791
C         -2.44066        0.37123        1.97939
C         -2.59333       -0.52340        3.03959
H         -2.06598       -1.47851        3.01174
C         -3.08163        1.60943        1.98878
H         -2.93599        2.29531        1.15347
C         -3.42580       -0.18471        4.10383
H         -3.55412       -0.88728        4.93057
C         -3.90778        1.93721        3.06187
H         -4.41761        2.90353        3.06752
C         -4.09017        1.04251        4.11641
H         -4.74348        1.30367        4.95184
C          3.63191       -0.59385        1.48175
C          4.13661        0.63020        1.91242
H          3.48034        1.49961        1.95702
C          4.45590       -1.71671        1.42710
H          4.04048       -2.66873        1.09241
C          5.48041        0.72663        2.26489
H          5.87256        1.69333        2.59238
C          5.79721       -1.60061        1.77897
H          6.44082       -2.48272        1.72182
C          6.33712       -0.37842        2.20047
C          7.77884       -0.26867        2.60444
H          8.15648        0.75604        2.47661
H          8.41592       -0.94430        2.01510
H          7.91342       -0.53722        3.66570
C          3.74411       -0.14830       -1.98946
C          5.00022        0.23992       -1.52662
H          5.39060       -0.19191       -0.60464
C          3.22224        0.38230       -3.16979
H          2.23661        0.05966       -3.50922
C          5.72767        1.18527       -2.24714
H          6.70953        1.49488       -1.88150
C          3.95757        1.32902       -3.87884
H          3.54564        1.75158       -4.79827
C          5.21004        1.73753       -3.41853
H          5.78334        2.48175       -3.97564
C          1.63819        1.84126       -0.03879
C          2.59090        2.72470       -0.54285
H          3.10450        2.48986       -1.47532
C          0.95417        2.11915        1.14485
H          0.19897        1.41586        1.49573
C          2.87594        3.89060        0.16588
H          3.62738        4.58167       -0.22324
C          1.25154        3.28634        1.84401
H          0.71975        3.50227        2.77356
C          2.21533        4.17298        1.36149
H          2.44671        5.08638        1.91406
