66
Cat53.ts34.5.log	Energy: -1015085.3462476
C          1.09350       -2.90848        0.60124
H          1.25361       -3.59959       -0.23085
H          1.98444       -2.73670        1.21401
C         -0.18353       -2.92190        1.24491
H         -0.97732       -3.55705        0.84113
H         -0.21542       -2.85599        2.33861
H         -0.58342       -1.35128        1.38074
Rh         0.07863       -1.16383       -0.09889
C          1.47611        1.27748        2.25608
C          3.39474       -0.23545        0.79732
C          1.89133        1.83983       -0.52735
C         -1.61978        1.04321       -2.19107
C         -3.37195       -0.63709       -0.64880
C         -1.98624        1.54706        0.68350
P         -1.72346        0.18889       -0.55390
P          1.66723        0.40674        0.62758
C          0.38285       -1.55884       -1.91525
O          0.57715       -1.77031       -3.03480
H          0.64278        1.98866        2.13045
C          1.18374        0.32737        3.40612
H          2.00983       -0.38269        3.56856
H          0.27851       -0.26473        3.20039
H          2.37847        1.87683        2.46474
H          1.03077        0.87503        4.34887
H          4.05640        0.56664        1.16872
H          3.36099       -1.00148        1.59079
C          3.94378       -0.84791       -0.48328
H          4.01315       -0.07047       -1.26405
H          3.21650       -1.58519       -0.86078
C          5.30413       -1.50056       -0.29426
H          6.05466       -0.77608        0.06149
H          5.25393       -2.31372        0.44781
H          5.67752       -1.93251       -1.23529
H          1.98779        1.39424       -1.53202
H          0.91834        2.36199       -0.53430
C          3.01685        2.83289       -0.27143
H          3.98620        2.30736       -0.29160
H          2.92294        3.25559        0.74294
C          3.03685        3.96339       -1.29009
H          3.16285        3.57433       -2.31317
H          2.09483        4.53496       -1.27038
H          3.85924        4.66937       -1.09764
H         -1.58658        0.21798       -2.92182
C         -2.67052        2.06860       -2.58439
H         -2.62869        2.96397       -1.94672
H         -3.69206        1.66274       -2.52885
H         -0.61189        1.48727       -2.21684
H         -2.50955        2.40281       -3.62133
H         -4.15879        0.10942       -0.85199
H         -3.31585       -1.29526       -1.53260
C         -3.71561       -1.45792        0.58627
H         -3.71916       -0.80707        1.47840
H         -2.90694       -2.18604        0.75477
C         -5.05361       -2.17082        0.47036
H         -5.88160       -1.45665        0.33258
H         -5.06392       -2.85652       -0.39200
H         -5.27269       -2.76498        1.37069
H         -1.66831        1.11755        1.64735
H         -1.22774        2.31303        0.44157
C         -3.36076        2.18835        0.83736
H         -4.09241        1.41950        1.13489
H         -3.71625        2.58204       -0.12677
C         -3.35691        3.30420        1.87216
H         -3.03245        2.93229        2.85733
H         -2.66727        4.11399        1.58397
H         -4.35738        3.74626        1.99497
