118
Cat567.ts34.5.log	Energy: -2208135.2301098
C          0.72102       -2.02772       -3.01216
H          0.08945       -1.88321       -3.89221
H          1.79706       -1.95770       -3.18587
C          0.23511       -2.82417       -1.95017
H         -0.76589       -3.26160       -2.01051
H          0.95942       -3.42561       -1.38746
H          0.21118       -1.95718       -0.56463
Rh         0.00759       -0.64582       -1.49026
O          1.72124        0.18815        1.32148
C          3.04155       -1.52655       -0.34655
C          3.20390        1.27864       -0.59062
O         -2.32619        1.31716       -0.35463
C         -3.43725       -1.15406       -0.67710
C         -1.60766       -0.59464        1.57862
P         -1.86814       -0.27682       -0.21953
P          1.93059       -0.05366       -0.34410
C         -0.41784        0.66295       -2.76178
O         -0.67675        1.45438       -3.56184
C          1.52604        1.41979        1.84526
C          0.93313        2.46587        1.13256
H          0.56129        2.28542        0.12163
C          1.95988        1.60860        3.17096
C          2.54834        0.45305        3.91628
H          1.77040       -0.29841        4.12850
H          3.30771       -0.04871        3.29973
H          2.99534        0.77478        4.86759
C          0.81230        3.72342        1.71826
H          0.35360        4.53636        1.14944
C          1.81999        2.87860        3.73463
H          2.17003        3.03794        4.75895
C          1.26510        3.94018        3.01769
H          1.18083        4.92794        3.47682
C          3.85737       -1.69334       -1.48205
O          3.74525       -0.72903       -2.41954
C          4.65041       -0.66842       -3.48203
H          4.41471        0.24924       -4.03570
H          5.69302       -0.61363       -3.12371
H          4.54678       -1.53292       -4.16148
C          3.05916       -2.54118        0.62549
O          2.20736       -2.41999        1.66381
C          2.45591       -3.13806        2.83583
H          1.76726       -2.74200        3.59157
H          3.49511       -3.00016        3.18227
H          2.26573       -4.22081        2.71601
C          3.92808       -3.63577        0.50395
H          3.94909       -4.40931        1.27106
C          4.72372       -2.78340       -1.61356
H          5.36035       -2.88645       -2.49160
C          4.75615       -3.74268       -0.60744
H          5.42933       -4.59834       -0.69830
C          4.41649        1.24080        0.13112
O          4.55448        0.25251        1.03351
C          5.79330        0.01897        1.63443
H          5.67952       -0.89720        2.22890
H          6.58704       -0.14155        0.88425
H          6.09076        0.84483        2.30413
C          2.99642        2.36170       -1.46571
O          1.80239        2.43966       -2.07743
C          1.48445        3.59075       -2.81190
H          0.44913        3.46551       -3.14590
H          2.13141        3.70197       -3.69945
H          1.56798        4.49926       -2.19068
C          3.99589        3.32469       -1.67151
H          3.83429        4.15443       -2.35713
C          5.42024        2.19416       -0.07857
H          6.35651        2.14904        0.47598
C          5.19820        3.22198       -0.98575
H          5.97529        3.97275       -1.14896
C         -3.51902        1.89880       -0.07117
C         -4.45332        1.36593        0.81721
H         -4.24369        0.42947        1.33505
C         -3.75341        3.12481       -0.71908
C         -2.71819        3.67142       -1.65237
H         -3.03737        4.63183       -2.08064
H         -1.75793        3.81740       -1.13166
H         -2.51381        2.96400       -2.46988
C         -5.64568        2.04743        1.05458
H         -6.37463        1.62310        1.74958
C         -4.95354        3.78786       -0.45607
H         -5.14485        4.74202       -0.95570
C         -5.90253        3.25960        0.41934
H         -6.83589        3.79589        0.60533
C         -4.21582       -1.98323        0.15891
O         -3.99741       -1.89647        1.48275
C         -4.56294       -2.82481        2.35949
H         -4.12493       -2.62010        3.34524
H         -5.66040       -2.71973        2.42219
H         -4.32042       -3.86125        2.06656
C         -3.82592       -1.06893       -2.03446
O         -3.18906       -0.14870       -2.77284
C         -3.46435       -0.03940       -4.14212
H         -2.79806        0.74141       -4.52583
H         -4.51321        0.25369       -4.31975
H         -3.25688       -0.98330       -4.67498
C         -4.83073       -1.88907       -2.56247
H         -5.10240       -1.82810       -3.61496
C         -5.21378       -2.81553       -0.36418
H         -5.79062       -3.46682        0.29112
C         -5.49833       -2.77092       -1.72263
H         -6.28152       -3.41452       -2.13046
C         -1.28229       -1.91549        1.93823
O         -1.38413       -2.82118        0.94287
C         -0.94107       -4.13166        1.14405
H         -1.07972       -4.65690        0.19096
H          0.12657       -4.15526        1.41744
H         -1.52924       -4.64954        1.92230
C         -1.57236        0.38710        2.58636
O         -1.89789        1.63834        2.24087
C         -2.06294        2.62119        3.22288
H         -2.40157        3.52190        2.69582
H         -1.11494        2.84576        3.73706
H         -2.83063        2.32671        3.95998
C         -1.21890        0.04642        3.90244
H         -1.17762        0.81544        4.67183
C         -0.93937       -2.26373        3.24515
H         -0.70910       -3.29591        3.50569
C         -0.90885       -1.26808        4.21817
H         -0.63966       -1.52466        5.24599
