80
Cat592.ts34.5.log	Energy: -3314246.8964229
C         -2.12952       -0.50313       -3.39393
H         -2.10748       -1.46595       -3.91007
H         -3.13761       -0.14538       -3.16094
C         -1.09714        0.43913       -3.66919
H         -0.26797        0.15673       -4.32391
H         -1.35318        1.50088       -3.74970
H         -0.60603        0.97395       -2.17534
Rh        -0.79642       -0.57111       -1.70950
O         -3.10210        1.30738        0.23726
C         -4.03244       -1.05834       -0.43182
C         -2.06443       -0.75296        1.58050
O          1.46912       -1.51224        0.46922
C          2.65723       -0.05852       -1.51480
C          1.19719        1.19767        0.58326
P          1.11111       -0.22463       -0.55654
P         -2.43971       -0.20569       -0.13176
C         -0.44547       -2.42491       -1.90220
O         -0.19188       -3.54376       -1.99849
C         -2.50400        2.48738       -0.07993
C         -2.41183        2.90914       -1.40769
H         -2.82824        2.27896       -2.19477
C         -2.02996        3.30564        0.94507
H         -2.10655        2.96792        1.97932
C         -1.81106        4.12681       -1.71387
H         -1.72264        4.46103       -2.74896
C         -1.45044        4.53410        0.64724
H         -1.06793        5.17332        1.44430
C         -1.32270        4.92763       -0.68283
Cl        -0.51967        6.41972       -1.05607
C         -5.26567       -0.42534       -0.24923
H         -5.29305        0.61390        0.08233
C         -4.00619       -2.38824       -0.86760
H         -3.04842       -2.88565       -1.03905
C         -6.45458       -1.10873       -0.49225
H         -7.41959       -0.61757       -0.35658
C         -5.18702       -3.08428       -1.09946
H         -5.16908       -4.12208       -1.43568
C         -6.40849       -2.43671       -0.91187
Cl        -7.88340       -3.29110       -1.21378
C         -1.26372       -1.88421        1.76693
H         -0.88852       -2.43438        0.90227
C         -2.50547       -0.03881        2.69970
H         -3.14400        0.83537        2.56159
C         -0.88634       -2.28703        3.04436
H         -0.24674       -3.15908        3.18833
C         -2.12537       -0.42356        3.98184
H         -2.45558        0.13794        4.85752
C         -1.30853       -1.54305        4.14582
Cl        -0.80736       -2.00850        5.73600
C          2.73550       -1.88750        0.82386
C          3.32016       -1.40860        1.99641
H          2.76555       -0.72113        2.63546
C          3.43327       -2.77826        0.00596
H          2.95508       -3.14936       -0.90231
C          4.61046       -1.80402        2.34059
H          5.07913       -1.43540        3.25436
C          4.72275       -3.17211        0.34345
H          5.27979       -3.86054       -0.29372
C          5.30943       -2.67639        1.50819
Cl         6.92037       -3.15519        1.92714
C          2.67731       -0.54690       -2.82480
H          1.74678       -0.92908       -3.25519
C          3.84418        0.43262       -0.95179
H          3.85098        0.81543        0.07076
C          3.85564       -0.55672       -3.56505
H          3.87563       -0.93757       -4.58726
C          5.02796        0.42706       -1.67884
H          5.95575        0.79939       -1.24217
C          5.02612       -0.07182       -2.98294
Cl         6.49738       -0.08552       -3.88882
C          0.84247        1.05349        1.92872
H          0.55644        0.07364        2.31602
C          1.52571        2.46828        0.09517
H          1.78059        2.60386       -0.95906
C          0.84483        2.15306        2.78271
H          0.56725        2.04256        3.83220
C          1.53247        3.57292        0.93839
H          1.77204        4.56633        0.55593
C          1.19423        3.40447        2.28079
Cl         1.15534        4.78474        3.32665
