106
Cat576.ts34.5.log	Energy: -1547112.8781218
C         -0.97085       -2.58543       -2.83528
H         -0.68389       -3.63995       -2.81496
H         -2.05144       -2.41664       -2.87047
C         -0.11544       -1.66816       -3.52029
H          0.83582       -2.01882       -3.93011
H         -0.57401       -0.88214       -4.13024
H          0.01476       -0.39570       -2.47010
Rh         0.09485       -1.52855       -1.30935
O         -1.51349        1.10898       -0.08486
C         -3.39158       -0.82110       -0.85992
C         -1.86002       -0.99533        1.59084
O          1.39192       -0.15848        1.33012
C          3.42515       -0.81082       -0.41094
C          1.75511        1.49263       -0.87785
P          1.67985       -0.25467       -0.32686
P         -1.69028       -0.58366       -0.18964
C          0.78199       -3.09984       -0.50816
O          1.23095       -4.02667        0.01328
C         -2.51324        2.02875        0.00348
C         -2.98728        2.42443        1.25881
H         -2.54898        1.97269        2.15008
C         -3.01721        2.60899       -1.17281
C         -2.47377        2.23405       -2.52040
H         -2.16121        3.13044       -3.07808
H         -1.60781        1.56503       -2.42702
H         -3.23716        1.72627       -3.13217
C         -4.00458        3.36733        1.35795
H         -4.37632        3.66504        2.34117
C         -4.04141        3.55482       -1.04404
H         -4.45060        4.01050       -1.95044
C         -4.54342        3.92803        0.19978
H         -5.34541        4.66653        0.26628
H         -3.40323       -1.89121       -1.13250
H         -3.40074       -0.28135       -1.81985
C         -4.61164       -0.48836       -0.01116
H         -4.60408       -1.12105        0.89193
H         -4.56533        0.55244        0.34530
C         -5.94853       -0.68844       -0.73235
H         -5.97689       -1.72804       -1.11108
C         -7.10082       -0.51201        0.25017
H         -7.02037       -1.21198        1.09654
H         -8.07471       -0.68003       -0.23527
H         -7.10482        0.51089        0.66243
C         -6.10795        0.25356       -1.92150
H         -7.08704        0.11704       -2.40615
H         -5.33838        0.08808       -2.69072
H         -6.03436        1.30461       -1.59550
H         -2.66850       -0.40507        2.05127
H         -0.90564       -0.65523        2.02033
C         -2.05625       -2.48804        1.82916
H         -3.11877       -2.74742        1.68074
H         -1.49315       -3.06027        1.06981
C         -1.60852       -2.96222        3.21589
H         -2.06409       -2.28694        3.96526
C         -2.11633       -4.37420        3.48328
H         -3.21521       -4.42748        3.42868
H         -1.81013       -4.73012        4.47928
H         -1.70970       -5.07938        2.73927
C         -0.09191       -2.89598        3.37073
H          0.21445       -3.18148        4.38895
H          0.30807       -1.89085        3.17230
H          0.39698       -3.58532        2.66310
C          2.16188        0.39246        2.31557
C          3.24731       -0.32576        2.82501
H          3.46930       -1.30822        2.40630
C          1.79228        1.63019        2.86992
C          0.60613        2.39228        2.36065
H          0.91944        3.25118        1.74412
H         -0.04211        1.76465        1.73759
H          0.01442        2.79819        3.19457
C          4.01358        0.20099        3.85961
H          4.86274       -0.36562        4.24857
C          2.57754        2.13282        3.91425
H          2.30351        3.09558        4.35535
C          3.68276        1.44143        4.40274
H          4.27542        1.86301        5.21760
H          3.45174       -1.81171        0.05129
H          4.05644       -0.14533        0.19759
C          3.90820       -0.89178       -1.85332
H          3.17630       -1.48296       -2.43048
H          3.91268        0.11645       -2.30737
C          5.29943       -1.50705       -2.02069
H          5.26985       -2.51411       -1.56368
C          5.62566       -1.67321       -3.50020
H          4.86648       -2.28394       -4.01297
H          6.60350       -2.15803       -3.64486
H          5.66247       -0.69340       -4.00552
C          6.38007       -0.69872       -1.31090
H          7.37389       -1.14908       -1.45817
H          6.20612       -0.63323       -0.22629
H          6.42023        0.33085       -1.70604
H          0.77223        1.90570       -0.59663
H          1.73855        1.42152       -1.97781
C          2.90744        2.36051       -0.39198
H          3.02747        2.25609        0.69721
H          3.85622        2.00562       -0.83301
C          2.74655        3.84811       -0.71890
H          1.78520        4.17797       -0.28099
C          3.86124        4.65356       -0.06218
H          3.88370        4.49157        1.02697
H          3.73965        5.73285       -0.24283
H          4.84576        4.35801       -0.46196
C          2.68721        4.10961       -2.21940
H          2.58391        5.18509       -2.43097
H          1.83734        3.59778       -2.69556
H          3.60991        3.76061       -2.71360
