56
Cat527.ts34.5.log	Energy: -1416631.0985182
C         -3.73178       -1.76388       -0.90715
H         -3.87767       -2.82542       -0.69252
H         -4.49788       -1.09789       -0.50102
C         -3.05120       -1.40494       -2.09999
H         -2.63858       -2.18378       -2.74691
H         -3.38886       -0.52051       -2.65103
H         -1.87699       -0.34487       -1.64633
Rh        -1.74080       -1.21451       -0.28513
O         -2.08113        2.16594        0.35351
O         -3.95342        0.82964        1.21048
O         -1.70339        0.71449        2.42265
O          1.36411       -0.82392        0.72230
O          1.25688       -2.49496       -1.10032
O          0.96104       -0.05142       -1.72670
P          0.46127       -1.12929       -0.61752
P         -2.35636        0.60630        0.92717
C         -1.62780       -2.68338        0.92171
O         -1.57190       -3.55550        1.66409
C         -0.93282        2.48470       -0.31204
C         -1.00364        2.79791       -1.66941
H         -1.97205        2.75429       -2.17058
C          0.29419        2.51892        0.35247
H          0.33187        2.25259        1.40986
C          0.14806        3.15141       -2.36469
H          0.12088        3.39368       -3.42850
C          1.44934        2.87327       -0.33798
H          2.42330        2.89852        0.15358
C          1.36058        3.18141       -1.68842
F          2.47412        3.48881       -2.36032
C         -4.67557        2.04180        1.16037
H         -4.37717        2.73601        1.96188
H         -4.53869        2.55122        0.19509
H         -5.73624        1.78547        1.29015
C         -2.08498        1.69653        3.36148
H         -1.99335        2.71195        2.94039
H         -3.12073        1.53521        3.70104
H         -1.41236        1.60532        4.22500
C          2.71177       -0.67142        0.89723
C          3.13165        0.42585        1.65239
H          2.37697        1.10345        2.05285
C          3.65099       -1.58579        0.41333
H          3.30693       -2.45256       -0.14931
C          4.48539        0.63502        1.89703
H          4.83336        1.48617        2.48511
C          5.00703       -1.37436        0.65120
H          5.76012       -2.07156        0.27920
C          5.41114       -0.26563        1.38387
F          6.71027       -0.06707        1.60892
C          0.66205       -3.34492       -2.05720
H         -0.42486       -3.42477       -1.88191
H          0.83315       -2.97456       -3.08225
H          1.12218       -4.33696       -1.95321
C          2.26969        0.05014       -2.25394
H          2.92812        0.60495       -1.56954
H          2.70397       -0.94315       -2.44553
H          2.19535        0.60901       -3.19647
