70
Cat553.ts34.5.log	Energy: -1251316.2118522
C         -2.79678       -1.67688       -1.45819
H         -2.87859       -2.72710       -1.74939
H         -3.61947       -1.31482       -0.83313
C         -2.18008       -0.76726       -2.36369
H         -1.74241       -1.14240       -3.29284
H         -2.59372        0.24402       -2.45260
H         -1.12807        0.08290       -1.40440
Rh        -0.81670       -1.33005       -0.68510
O         -2.52021        0.90499        1.31512
C         -2.71543       -1.55095        2.26683
C         -0.32081        0.00144        2.61704
O          1.81845        0.35779        0.30764
C          2.64935       -1.91704       -1.07511
C          1.62253        0.41039       -2.42503
P          1.31308       -0.65746       -0.95582
P         -1.54445       -0.48639        1.33363
C         -0.40844       -3.15640       -0.40670
O         -0.12526       -4.25348       -0.19048
C         -2.46993        1.83275        0.32608
C         -1.26005        2.36368       -0.12693
H         -0.32430        2.01528        0.31185
C         -3.69226        2.24842       -0.23043
C         -4.97363        1.65177        0.26416
H         -5.83750        2.06474       -0.27422
H         -4.97646        0.55746        0.13646
H         -5.11081        1.83887        1.34060
C         -1.25448        3.31818       -1.14235
H         -0.30404        3.73191       -1.48881
C         -3.65842        3.21075       -1.24303
H         -4.60329        3.54238       -1.68263
C         -2.45509        3.74342       -1.70581
H         -2.45821        4.49190       -2.50120
H         -2.17205       -2.49657        2.43373
C         -3.29263       -0.98893        3.55493
H         -3.77265       -0.01585        3.37627
H         -2.51835       -0.84632        4.32394
H         -3.51077       -1.79466        1.54425
H         -4.04857       -1.67049        3.97461
H         -0.85115        0.47115        3.46035
C          0.54161       -1.17050        3.05835
H          0.96484       -1.68965        2.18409
H         -0.03091       -1.90957        3.64016
H          0.30879        0.77003        2.14644
H          1.37915       -0.82840        3.68434
C          3.06184        0.72860        0.72531
C          3.92137       -0.19681        1.32207
H          3.59416       -1.23112        1.42964
C          3.41932        2.08771        0.64453
C          2.45967        3.10005        0.09786
H          2.06047        2.80042       -0.88154
H          1.59274        3.22428        0.76632
H          2.94292        4.08031       -0.01125
C          5.16979        0.20388        1.79171
H          5.83537       -0.53065        2.25099
C          4.67750        2.46257        1.12451
H          4.96836        3.51474        1.05988
C          5.55646        1.53692        1.68396
H          6.53387        1.86087        2.04774
H          2.56438       -2.54318       -0.17254
C          2.51478       -2.77867       -2.32382
H          2.65355       -2.19104       -3.24394
H          1.52505       -3.25483       -2.37752
H          3.63313       -1.42364       -1.03892
H          3.27413       -3.57490       -2.32261
H          0.98269        1.29314       -2.26030
C          3.05757        0.79691       -2.74775
H          3.66328       -0.07884       -3.02415
H          3.55861        1.28742       -1.90116
H          1.15439       -0.12930       -3.26512
H          3.08689        1.49295       -3.60037
