92
Cat595.ts34.5.log	Energy: -2259563.9630683
C          2.06646       -3.94384       -0.04691
H          1.81113       -4.67522       -0.81787
H          3.10680       -3.60393       -0.05237
C          1.35876       -3.98505        1.18161
H          0.53854       -4.69447        1.31889
H          1.90367       -3.76028        2.10478
H          0.84381       -2.42656        1.44220
Rh         0.62284       -2.34067       -0.15921
O          1.75956        0.56183        1.12416
C          3.81760       -0.94452        0.23075
C          2.17508        0.55831       -1.57235
O         -1.37932        0.18409       -0.28215
C         -2.96442       -2.05249       -0.28977
C         -1.73008       -1.08891        2.11176
P         -1.37460       -1.40527        0.34704
P          2.07070       -0.55422       -0.12639
C          0.25269       -2.67318       -1.98545
O          0.07235       -2.81868       -3.11339
C          1.96003        1.90634        1.00812
C          3.14160        2.49171        1.46426
H          3.92330        1.86053        1.88953
C          0.95313        2.69910        0.45196
H          0.04355        2.21531        0.09394
C          3.32107        3.86867        1.35667
H          4.24103        4.33950        1.70695
C          1.13066        4.07285        0.33846
H          0.35383        4.69876       -0.10333
C          2.31714        4.65138        0.78938
Cl         2.54563        6.36470        0.64357
C          4.28068       -0.94744        1.55078
H          3.62831       -0.59158        2.35156
C          4.64442       -1.43694       -0.78722
H          4.27471       -1.45955       -1.81720
C          5.56491       -1.40996        1.83218
H          5.92812       -1.40929        2.86304
C          5.93510       -1.90052       -0.51765
C          6.82509       -2.38695       -1.62429
H          7.41427       -3.26164       -1.31131
H          6.24455       -2.66454       -2.51527
H          7.54042       -1.60406       -1.92660
C          6.38511       -1.87882        0.80944
H          7.38956       -2.24303        1.04234
C          3.28343        1.38046       -1.82216
H          4.17433        1.30923       -1.19530
C          1.04061        0.66984       -2.37859
H          0.17486        0.04270       -2.15536
C          3.23622        2.29650       -2.86656
H          4.09562        2.94207       -3.06252
C          0.97763        1.59291       -3.42838
C         -0.27020        1.70934       -4.25436
H         -0.61483        0.71985       -4.59205
H         -1.08892        2.15456       -3.66538
H         -0.11348        2.33921       -5.14118
C          2.09309        2.40231       -3.66017
H          2.06752        3.13013       -4.47610
C         -2.46214        0.99852       -0.38972
C         -2.84893        1.82177        0.67077
H         -2.27810        1.80151        1.60010
C         -3.18007        1.02081       -1.58883
H         -2.86415        0.36846       -2.40473
C         -3.97314        2.63414        0.54528
H         -4.29362        3.27061        1.37162
C         -4.30019        1.83374       -1.71966
H         -4.87545        1.84611       -2.64676
C         -4.70029        2.62679       -0.64416
Cl        -6.12712        3.60197       -0.78650
C         -2.95511       -3.15477       -1.15128
H         -2.00884       -3.65593       -1.36578
C         -4.18583       -1.43306        0.01155
H         -4.21408       -0.58859        0.70343
C         -4.14555       -3.60620       -1.71471
H         -4.13617       -4.46925       -2.38446
C         -5.38608       -1.86299       -0.56185
C         -6.66377       -1.13579       -0.25872
H         -6.84812       -1.08766        0.82584
H         -6.61756       -0.09569       -0.62098
H         -7.52933       -1.62174       -0.72997
C         -5.34682       -2.95922       -1.43053
H         -6.27514       -3.31381       -1.88723
C         -2.72656       -1.75801        2.82683
H         -3.38267       -2.47258        2.32618
C         -0.87922       -0.19845        2.78204
H         -0.06597        0.27941        2.22975
C         -2.87596       -1.51243        4.19255
H         -3.65343       -2.03681        4.75366
C         -1.02925        0.06468        4.14391
C         -0.12516        1.04170        4.83874
H          0.29568        0.61250        5.76111
H          0.70764        1.34510        4.18898
H         -0.67302        1.95344        5.12807
C         -2.04461       -0.60587        4.84191
H         -2.17571       -0.42047        5.91193
