52
Cat581.ts34.5.log	Energy: -1680059.4672604
C         -4.49263       -0.06558       -1.02758
H         -5.07758       -0.96472       -1.23727
H         -4.97328        0.63126       -0.33434
C         -3.67110        0.46014       -2.06843
H         -3.58269       -0.08285       -3.01333
H         -3.62331        1.54744       -2.19740
H         -2.23503        0.75850       -1.31758
Rh        -2.48467       -0.63565       -0.53170
O         -1.78140        1.90599        1.79183
C         -3.94539        0.63700        2.47747
C         -1.41354       -0.57962        2.79962
O          0.73587       -0.67801        0.22437
C          0.17320       -2.77507       -1.42346
C          0.38758       -0.14008       -2.44037
P         -0.32843       -1.06151       -1.03599
P         -2.39938        0.33449        1.56078
C         -2.92014       -2.46056       -0.27486
O         -3.14781       -3.57415       -0.08689
C         -0.69573        2.33975        1.10378
C         -0.84356        2.92227       -0.15773
H         -1.84498        3.02713       -0.57709
C          0.57697        2.22927        1.66892
H          0.67945        1.78191        2.65881
C          0.27337        3.36284       -0.86281
H          0.16873        3.81225       -1.85187
C          1.69643        2.67332        0.97524
H          2.69412        2.57606        1.40548
C          1.53892        3.22100       -0.29666
Cl         2.94402        3.69392       -1.20330
H         -4.46665       -0.32240        2.60923
H         -3.74019        1.09418        3.45666
H         -4.59170        1.30689        1.89354
H         -1.39720       -0.06317        3.77132
H         -1.85123       -1.58324        2.91261
H         -0.39418       -0.69436        2.40497
C          2.07120       -0.94766        0.23250
C          2.98604       -0.09122       -0.38686
H          2.63144        0.79708       -0.90819
C          2.53570       -2.06609        0.93000
H          1.81244       -2.72131        1.41951
C          4.35095       -0.35387       -0.31408
H          5.06689        0.31927       -0.78840
C          3.89905       -2.33368        1.00501
H          4.26733       -3.20456        1.54960
C          4.80293       -1.47560        0.37927
Cl         6.50201       -1.80263        0.47185
H          1.25709       -2.86397       -1.59101
H         -0.12965       -3.44231       -0.60429
H         -0.36523       -3.08390       -2.33130
H          0.34924        0.93359       -2.20800
H          1.42202       -0.43968       -2.66209
H         -0.24584       -0.33114       -3.31885
