64
Cat582.ts34.5.log	Energy: -1778650.4132091
C          3.17574       -3.28341       -0.57723
H          4.10397       -3.41794       -0.01588
H          2.46373       -4.10728       -0.46760
C          3.23955       -2.60083       -1.83039
H          4.18391       -2.15710       -2.15719
H          2.64048       -2.98276       -2.66420
H          1.96693       -1.54709       -1.75990
Rh         2.40360       -1.31908       -0.21379
O         -0.89752       -0.99696       -0.40819
C         -0.30740       -3.60374        0.38556
C         -0.18910       -1.36558        2.20883
O          0.99252        1.46773        0.69705
C          3.37971        2.07488       -0.43898
C          1.12448        1.30812       -2.10023
P          1.99098        0.87707       -0.53456
P          0.27392       -1.85182        0.49583
C          3.61776       -0.97804        1.19928
O          4.34279       -0.73962        2.06359
C         -2.23379       -1.24219       -0.41976
C         -3.08105       -0.69123        0.54759
H         -2.66090       -0.07023        1.33997
C         -2.77775       -2.00684       -1.45636
H         -2.10898       -2.40867       -2.21977
C         -4.45146       -0.93148        0.49841
H         -5.11692       -0.50808        1.25249
C         -4.14588       -2.25043       -1.50962
H         -4.57482       -2.85152       -2.31299
C         -4.97844       -1.71720       -0.52543
Cl        -6.68293       -2.02162       -0.58504
H          0.58028       -4.18164        0.69383
C         -1.53092       -4.06644        1.16416
H         -2.44286       -3.52528        0.87804
H         -1.39264       -3.94110        2.24818
H         -0.41559       -3.80394       -0.69422
H         -1.71263       -5.13743        0.98306
H         -1.24809       -1.60435        2.39534
C          0.70893       -2.00818        3.25565
H          1.76406       -1.75361        3.08068
H          0.62690       -3.10666        3.25435
H         -0.07845       -0.26963        2.22246
H          0.43941       -1.65941        4.26391
C          0.18903        2.56249        0.62374
C         -1.11543        2.42803        0.14106
H         -1.44928        1.44603       -0.19492
C          0.63955        3.80465        1.07637
H          1.65117        3.89156        1.47674
C         -1.95759        3.53332        0.08396
H         -2.97567        3.43713       -0.29691
C         -0.20005        4.91387        1.02115
H          0.14221        5.88957        1.36985
C         -1.49348        4.77506        0.51850
Cl        -2.53809        6.15594        0.44511
H          3.76812        1.98305        0.58835
C          4.47172        1.77330       -1.45405
H          4.11364        1.88948       -2.48907
H          4.82848        0.73816       -1.33896
H          2.98946        3.09950       -0.55227
H          5.32856        2.45066       -1.32178
H          0.12861        0.84639       -1.99831
C          1.05411        2.75728       -2.55808
H          2.05547        3.17816       -2.73372
H          0.53890        3.40540       -1.83654
H          1.64840        0.68982       -2.84759
H          0.50377        2.82339       -3.50932
