58
Cat552.ts34.5.log	Energy: -1152720.2312694
C         -2.81041       -1.14048       -1.43975
H         -3.14089       -2.10553       -1.83215
H         -3.53777       -0.63935       -0.79363
C         -1.95174       -0.33759       -2.24275
H         -1.58041       -0.72718       -3.19452
H         -2.09759        0.74867       -2.23679
H         -0.75278        0.14187       -1.17505
Rh        -0.84245       -1.36520       -0.59467
O         -2.33272        0.82373        1.61739
C         -2.69232       -1.64209        2.38677
C         -0.21595       -0.36660        2.80677
O          1.89134        0.14335        0.31046
C          2.39124       -2.55686        0.07800
C          2.24467       -0.90288       -2.19881
P          1.39292       -1.18772       -0.60708
P         -1.46404       -0.62936        1.49564
C         -0.87919       -3.26052       -0.61642
O         -0.86908       -4.41334       -0.59875
C         -2.23378        1.83597        0.71739
C         -0.99950        2.32565        0.28433
H         -0.07851        1.87757        0.66207
C         -3.43741        2.39199        0.24825
C         -4.74531        1.84870        0.73488
H         -5.59009        2.39770        0.29709
H         -4.85596        0.78313        0.47680
H         -4.81669        1.90955        1.83179
C         -0.95395        3.37420       -0.63351
H          0.01339        3.75521       -0.96831
C         -3.36138        3.44471       -0.66655
H         -4.29090        3.88487       -1.03831
C         -2.13461        3.93440       -1.11467
H         -2.10317        4.75681       -1.83274
H         -2.24241       -2.62056        2.61049
H         -3.01666       -1.15351        3.31787
H         -3.55897       -1.80408        1.73117
H         -0.66995        0.07596        3.70598
H          0.22730       -1.34313        3.05673
H          0.58472        0.27955        2.42291
C          3.18209        0.58243        0.42360
C          4.02130        0.00677        1.38241
H          3.62803       -0.79550        2.00872
C          3.62335        1.65669       -0.36753
C          2.71895        2.32500       -1.36009
H          3.02673        2.10466       -2.39487
H          1.68002        1.99451       -1.23943
H          2.75188        3.41852       -1.23973
C          5.32369        0.46749        1.54367
H          5.97239        0.01219        2.29550
C          4.93817        2.10179       -0.18262
H          5.29611        2.93918       -0.78850
C          5.78798        1.51617        0.75086
H          6.80814        1.88767        0.86985
H          2.08413       -2.74209        1.11693
H          2.15871       -3.45759       -0.50958
H          3.47228       -2.36064        0.03416
H          3.31257       -0.66659       -2.07035
H          2.14169       -1.82639       -2.78753
H          1.73997       -0.09461       -2.74324
