104
Cat530.ts34.5.log	Energy: -1717893.5598631
C          1.13463       -1.59779       -3.15117
H          1.02913       -1.03390       -4.08164
H          2.14201       -1.98633       -2.97426
C          0.01680       -2.35696       -2.69738
H         -0.92638       -2.30313       -3.24818
H          0.19689       -3.34595       -2.26062
H         -0.13509       -1.97905       -1.13120
Rh         0.25508       -0.45817       -1.55099
O          2.25981       -2.04574        0.76583
C          3.72664       -0.74010       -0.94966
C          2.24120        0.64335        1.27925
O         -1.45059        0.93992        1.09817
C         -2.80976        1.20511       -1.26163
C         -2.53531       -1.34123        0.35656
P         -1.61181        0.09690       -0.36918
P          2.08346       -0.59011       -0.10485
C          0.29060        1.14396       -2.53828
O          0.30261        2.13776       -3.12737
C          1.20989       -2.74311        1.26135
C          0.89559       -3.98153        0.69350
H          1.48417       -4.32885       -0.15767
C          0.46749       -2.27969        2.35297
H          0.69256       -1.30565        2.78764
C         -0.13825       -4.75633        1.21199
H         -0.39846       -5.72430        0.77989
C         -0.55705       -3.05646        2.88683
H         -1.13858       -2.71151        3.74331
C         -0.84825       -4.28487        2.30882
F         -1.85354       -5.01633        2.79995
H          3.57291       -1.70899       -1.46375
C          4.96945       -0.89998       -0.07582
H          4.79379       -1.66014        0.69969
H          5.17948        0.05170        0.44115
C          6.17945       -1.26793       -0.93112
H          7.07568       -1.36196       -0.29636
H          6.01307       -2.26293       -1.38251
C          6.41375       -0.24407       -2.03646
H          7.26643       -0.54495       -2.66662
H          6.69301        0.72241       -1.57835
C          5.16437       -0.04761       -2.88884
H          4.95066       -0.98009       -3.44258
H          5.33505        0.73137       -3.64942
C          3.94958        0.31113       -2.03824
H          4.10992        1.29910       -1.57515
H          3.04868        0.40253       -2.66289
H          1.18931        0.74221        1.60869
C          2.67499        2.02057        0.77205
H          2.07147        2.31831       -0.10010
H          3.72329        1.96777        0.43059
C          2.56494        3.06223        1.88139
H          2.89997        4.04451        1.51100
H          1.50403        3.17976        2.15470
C          3.35455        2.65588        3.11958
H          3.22020        3.40260        3.91883
H          4.43412        2.64496        2.88196
C          2.93946        1.27168        3.60549
H          1.88828        1.30634        3.94630
H          3.54129        0.97065        4.47850
C          3.07525        0.23376        2.49532
H          4.13525        0.15333        2.21135
H          2.78450       -0.76424        2.85320
C         -1.15901        2.24783        1.28755
C         -1.42776        2.76494        2.56187
H         -1.84206        2.09567        3.31801
C         -0.61540        3.09012        0.31144
H         -0.35211        2.70136       -0.66997
C         -1.18418        4.10324        2.85052
H         -1.39451        4.51760        3.83817
C         -0.38227        4.43502        0.59462
H          0.03884        5.09990       -0.16149
C         -0.67203        4.93071        1.85718
F         -0.44709        6.21778        2.12805
H         -2.18679        2.10556       -1.41122
C         -4.05847        1.65932       -0.50803
H         -3.80406        1.99539        0.50878
H         -4.75301        0.80892       -0.40060
C         -4.75601        2.77730       -1.27956
H         -5.66768        3.09252       -0.74644
H         -4.09108        3.65931       -1.30673
C         -5.09351        2.34993       -2.70426
H         -5.55261        3.18566       -3.25683
H         -5.85386        1.54827       -2.66804
C         -3.86371        1.83366       -3.44505
H         -3.14858        2.66194       -3.59758
H         -4.14281        1.47599       -4.44942
C         -3.16771        0.71967       -2.66925
H         -3.83935       -0.15220       -2.60698
H         -2.25994        0.38096       -3.19232
H         -1.70708       -1.96578        0.73350
C         -3.25316       -2.14682       -0.72903
H         -2.57023       -2.35803       -1.56570
H         -4.08407       -1.54865       -1.13992
C         -3.82499       -3.44019       -0.15852
H         -4.33783       -4.00607       -0.95313
H         -2.99772       -4.07780        0.20000
C         -4.77721       -3.15266        0.99589
H         -5.16762       -4.09281        1.41741
H         -5.65122       -2.59433        0.61282
C         -4.08636       -2.33545        2.08099
H         -3.30143       -2.95829        2.53831
H         -4.79570       -2.08873        2.88783
C         -3.46890       -1.04979        1.53367
H         -4.27669       -0.37353        1.21402
H         -2.91577       -0.52206        2.32311
