80
Cat589.ts34.5.log	Energy: -2160955.0673994
C         -2.15098       -2.25029       -2.61213
H         -1.83606       -3.28571       -2.76312
H         -3.20519       -2.12991       -2.34550
C         -1.49230       -1.22964       -3.34561
H         -0.65538       -1.47842       -4.00433
H         -2.08579       -0.38275       -3.70805
H         -1.00094       -0.08928       -2.24345
Rh        -0.77478       -1.32880       -1.22366
O         -3.41071        0.71873        0.05289
C         -3.84238       -1.83150        0.28989
C         -2.09353       -0.52914        2.05115
O          1.79008       -0.88023        0.74092
C          2.58749       -0.55830       -1.85317
C          1.18476        1.50737       -0.43575
P          1.17127       -0.29598       -0.72215
P         -2.43858       -0.65803        0.25243
C         -0.13552       -3.00035       -0.60649
O          0.26697       -4.00569       -0.21835
C         -2.92665        1.97491       -0.14096
C         -3.07822        2.92024        0.87636
H         -3.51678        2.61068        1.82581
C         -2.36341        2.35465       -1.36165
H         -2.25461        1.61132       -2.15076
C         -2.68957        4.24031        0.67052
H         -2.81513        4.98722        1.45603
C         -1.95936        3.66920       -1.56678
H         -1.51490        3.97225       -2.51556
C         -2.13094        4.60707       -0.55139
Cl        -1.63026        6.24928       -0.80835
C         -3.58700       -3.14329        0.71060
C         -5.12382       -1.48661       -0.14769
C         -5.88348       -3.74576        0.26630
C         -6.13908       -2.44502       -0.15931
C         -4.60339       -4.09208        0.70454
H         -2.58382       -3.42313        1.04452
H         -4.39553       -5.11054        1.04125
H         -6.68022       -4.49337        0.25665
H         -7.13865       -2.16794       -0.50362
H         -5.32220       -0.46398       -0.47265
C         -0.84918       -0.91907        2.55011
C         -3.07639       -0.05668        2.93185
C         -1.55685       -0.34337        4.78764
C         -2.80602        0.04072        4.29268
C         -0.58331       -0.82791        3.91779
H         -0.07863       -1.28149        1.86581
H          0.39437       -1.13328        4.29855
H         -1.34700       -0.26709        5.85743
H         -3.57463        0.41105        4.97571
H         -4.05706        0.22673        2.54093
C          3.08859       -0.76538        1.14505
C          3.52305        0.35691        1.85252
H          2.82017        1.16159        2.07026
C          3.97751       -1.80510        0.86551
H          3.61531       -2.67388        0.31297
C          4.85053        0.44648        2.26356
H          5.20364        1.31956        2.81461
C          5.30294       -1.72047        1.27621
H          6.00676       -2.52495        1.05776
C          5.73554       -0.58937        1.96825
Cl         7.39027       -0.47307        2.47197
C          2.47016       -1.55697       -2.82589
C          3.80160        0.13556       -1.72835
C          4.74420       -1.16643       -3.53150
C          4.87215       -0.16945       -2.56352
C          3.54265       -1.85985       -3.66299
H          1.52046       -2.09498       -2.90448
H          3.43883       -2.64129       -4.41938
H          5.58713       -1.40319       -4.18549
H          5.81501        0.37108       -2.45299
H          3.91612        0.91282       -0.97032
C          1.62600        2.42044       -1.39936
C          0.65030        1.98673        0.76835
C          1.09348        4.25803        0.07666
C          0.61723        3.35327        1.02563
C          1.57995        3.79014       -1.14117
H          2.01683        2.06302       -2.35463
H          1.92945        4.49640       -1.89798
H          1.05241        5.33087        0.27357
H          0.20463        3.71484        1.96989
H          0.26481        1.28368        1.51104
