86
Cat558.ts34.5.log	Energy: -1538684.4949864
C         -0.21752        3.61602       -0.98608
H         -0.76117        4.36757       -0.40782
H          0.86912        3.73862       -1.00255
C         -0.85606        3.04939       -2.12367
H         -1.89397        3.30517       -2.35177
H         -0.24819        2.84313       -3.01107
H         -0.60140        1.41690       -1.93800
Rh        -0.88549        1.66459       -0.36321
O          1.37791       -0.76604       -0.26028
O          2.35576        1.43941       -1.08627
O          2.06229        1.09931        1.35464
O         -1.79160       -1.57139        0.14988
O         -3.72118        0.09985        0.18801
O         -2.70944       -0.67978       -1.93239
P         -2.26393       -0.09055       -0.48313
P          1.22943        0.88012       -0.04348
C         -1.73245        2.35074        1.19135
O         -2.23633        2.75271        2.14337
C          2.55753       -1.45801       -0.32524
C          3.27416       -1.74696        0.83510
H          2.89600       -1.37877        1.78754
C          2.98256       -1.91867       -1.58176
C          2.17600       -1.61111       -2.80554
H          1.20472       -2.13059       -2.77399
H          1.96231       -0.53394       -2.87441
H          2.70202       -1.92779       -3.71649
C          4.44663       -2.49469        0.75429
H          5.00936       -2.71883        1.66354
C          4.15993       -2.67088       -1.63321
H          4.50707       -3.03778       -2.60317
C          4.89285       -2.95663       -0.48224
H          5.81068       -3.54467       -0.55246
C          3.74433        1.69509       -0.80537
H          4.05562        1.05809        0.03689
C          3.90412        3.15146       -0.41881
H          3.30342        3.38103        0.47159
H          3.57724        3.80494       -1.24282
H          4.95693        3.37945       -0.19353
C          4.53276        1.32083       -2.04142
H          4.42260        0.25087       -2.26366
H          4.18517        1.90247       -2.90911
H          5.60173        1.53103       -1.88756
C          1.39817        1.45106        2.57695
H          0.35903        1.08364        2.52363
C          1.39025        2.95850        2.72873
H          0.90253        3.42717        1.86182
H          2.41820        3.34554        2.80831
H          0.83596        3.25271        3.63240
C          2.11766        0.74258        3.70339
H          2.04699       -0.34723        3.58500
H          3.17907        1.03434        3.72560
H          1.66304        1.00597        4.66991
C         -1.21756       -1.74811        1.37360
C         -1.55516       -0.95748        2.47344
H         -2.29807       -0.16648        2.36426
C         -0.28740       -2.79554        1.49134
C          0.03664       -3.64587        0.30462
H         -0.83013       -4.26054        0.01127
H          0.29380       -3.01736       -0.55884
H          0.88149       -4.31496        0.51495
C         -0.95724       -1.19723        3.71037
H         -1.22799       -0.57522        4.56686
C          0.29626       -3.01049        2.74104
H          1.02624       -3.81822        2.84281
C         -0.02716       -2.22332        3.84720
H          0.44371       -2.41712        4.81356
C         -4.73715       -0.92351        0.14714
H         -4.26777       -1.86281       -0.18865
C         -5.79469       -0.50272       -0.85116
H         -5.34595       -0.38308       -1.84654
H         -6.24562        0.45507       -0.54966
H         -6.59088       -1.26018       -0.91137
C         -5.26303       -1.09901        1.55516
H         -4.46336       -1.42960        2.23306
H         -5.67054       -0.14849        1.93221
H         -6.06387       -1.85329        1.57296
C         -1.72760       -1.06802       -2.90185
H         -0.72877       -0.79755       -2.51452
C         -1.99109       -0.28654       -4.17095
H         -1.92864        0.79365       -3.97662
H         -2.99823       -0.50985       -4.55532
H         -1.25542       -0.54705       -4.94659
C         -1.80416       -2.56956       -3.08373
H         -1.61941       -3.07653       -2.12742
H         -2.80226       -2.85966       -3.44643
H         -1.05703       -2.91073       -3.81635
