64
Cat524.ts34.5.log	Energy: -1326493.6420575
C          2.33992       -3.58031       -0.61496
H          3.22426       -3.88055       -0.04695
H          1.49777       -4.27416       -0.53036
C          2.53553       -2.89416       -1.85254
H          3.54576       -2.61052       -2.15984
H          1.89230       -3.15299       -2.70060
H          1.45758       -1.64079       -1.77272
Rh         1.90482       -1.52184       -0.21740
O         -1.29447       -0.65706       -0.44629
C         -1.15587       -3.33598        0.32356
C         -0.68807       -1.16548        2.17189
O          0.96262        1.44243        0.74569
C          3.43064        1.66801       -0.35636
C          1.10062        1.31865       -2.05441
P          1.86322        0.71984       -0.48952
P         -0.29460       -1.70494        0.45782
C          3.14059       -1.41592        1.21356
O          3.88388       -1.31816        2.08987
C         -2.65410       -0.69204       -0.48809
C         -3.42611       -0.02906        0.47203
H         -2.93094        0.50840        1.28192
C         -3.28621       -1.35087       -1.54729
H         -2.66997       -1.84085       -2.30328
C         -4.81662       -0.05479        0.39329
H         -5.43705        0.45271        1.13420
C         -4.67483       -1.38052       -1.63057
H         -5.18669       -1.89366       -2.44673
C         -5.42539       -0.73656       -0.65321
F         -6.75559       -0.76408       -0.72869
H         -0.38046       -4.05335        0.64170
C         -2.45128       -3.59504        1.08031
H         -3.25950       -2.91540        0.77831
H         -2.31394       -3.49033        2.16670
H         -1.27804       -3.51144       -0.75897
H         -2.79867       -4.62373        0.89577
H         -1.77495       -1.21588        2.34360
C          0.06970       -1.96572        3.22088
H          1.15523       -1.89885        3.05982
H         -0.20401       -3.03263        3.20660
H         -0.38503       -0.10679        2.19836
H         -0.14645       -1.58412        4.23014
C          0.34782        2.65624        0.68213
C         -0.95565        2.74115        0.18523
H         -1.43875        1.83013       -0.16889
C          0.98971        3.80180        1.15824
H          1.99718        3.71623        1.56902
C         -1.60679        3.96998        0.13698
H         -2.62274        4.05978       -0.25197
C          0.34196        5.03421        1.11224
H          0.82204        5.94415        1.47689
C         -0.94692        5.10436        0.59649
F         -1.56682        6.28361        0.55040
H          3.78561        1.49260        0.67223
C          4.47021        1.21002       -1.36781
H          4.14919        1.40470       -2.40320
H          4.64882        0.12789       -1.27228
H          3.21674        2.74521       -0.45069
H          5.42586        1.73288       -1.21314
H          0.04109        1.02547       -1.97247
C          1.27551        2.76776       -2.48347
H          2.33486        3.02210       -2.63768
H          0.86164        3.47833       -1.75553
H          1.52549        0.63673       -2.80922
H          0.75890        2.93996       -3.44038
