102
Cat578.ts34.5.log	Energy: -1920986.7196106
C         -1.44633       -0.35833       -3.46186
H         -1.60788       -1.32509       -3.94543
H         -2.35587        0.19968       -3.22068
C         -0.25814        0.35685       -3.76111
H          0.50711       -0.09796       -4.39522
H         -0.30208        1.44844       -3.84208
H          0.32599        0.80648       -2.28433
Rh        -0.14572       -0.64659       -1.76139
O         -0.82702        1.89577        0.23736
O         -2.92133        1.03852       -0.74081
O         -1.84471       -0.13148        1.24687
O          2.80355       -2.05649       -1.31490
O          2.96148        0.43558       -1.05313
O          2.00539       -1.01707        0.78999
P          1.87688       -0.78883       -0.85298
P         -1.42924        0.45669       -0.25610
C         -0.43871       -2.53888       -1.74681
O         -0.61463       -3.67137       -1.74225
C         -1.54206        2.90361        0.84373
C         -1.80758        2.85321        2.20880
H         -1.49668        1.97560        2.77583
C         -1.93522        3.99067        0.04951
C         -1.65312        3.98812       -1.42065
H         -0.59630        3.75609       -1.62215
H         -2.25433        3.21256       -1.92148
H         -1.89427        4.96011       -1.87177
C         -2.47493        3.91518        2.81640
H         -2.68594        3.88076        3.88767
C         -2.59695        5.04419        0.68713
H         -2.90895        5.90582        0.09059
C         -2.86711        5.01403        2.05514
H         -3.38644        5.85188        2.52583
C         -4.07726        0.32305       -0.57551
C         -4.20111       -0.96988       -1.07828
H         -3.35673       -1.42002       -1.60518
C         -5.12428        0.92325        0.12358
H         -4.98869        1.93356        0.51373
C         -5.37068       -1.70650       -0.86216
C         -5.45074       -3.13013       -1.32725
H         -5.12946       -3.23052       -2.37500
H         -4.78297       -3.76601       -0.72215
H         -6.47073       -3.52959       -1.24003
C         -6.30032        0.20411        0.31426
H         -7.13077        0.66244        0.85679
C         -6.42260       -1.10053       -0.16745
H         -7.34737       -1.65820        0.00210
C         -2.04980       -1.46112        1.54374
C         -3.33803       -1.86748        1.88182
H         -4.14036       -1.12668        1.87959
C         -0.98896       -2.36422        1.53683
H          0.01544       -2.02062        1.29011
C         -3.59885       -3.20434        2.19588
C         -4.98832       -3.63180        2.57108
H         -5.20884       -3.37826        3.62134
H         -5.74047       -3.12234        1.95016
H         -5.12089       -4.71730        2.45862
C         -1.24867       -3.69879        1.84056
H         -0.42902       -4.42100        1.82273
C         -2.53806       -4.11817        2.15969
H         -2.72664       -5.17024        2.38896
C          3.98423       -2.40064       -0.68594
C          5.15661       -1.72268       -1.00984
H          5.11229       -0.91621       -1.74220
C          3.96418       -3.44858        0.24472
C          2.68607       -4.15601        0.57319
H          2.05091       -3.52134        1.21106
H          2.10698       -4.37910       -0.33476
H          2.88217       -5.09498        1.10831
C          6.34957       -2.07531       -0.38266
H          7.27114       -1.54413       -0.63136
C          5.17758       -3.78334        0.85445
H          5.18950       -4.59719        1.58446
C          6.35848       -3.10619        0.55493
H          7.28927       -3.39065        1.05085
C          2.64448        1.72986       -1.39103
C          2.33448        2.65044       -0.39493
H          2.30653        2.32253        0.64442
C          2.68317        2.10690       -2.73233
H          2.93471        1.36380       -3.49106
C          2.05603        3.98048       -0.72310
C          1.68629        4.95705        0.35440
H          0.61227        4.88359        0.59318
H          2.23645        4.75132        1.28393
H          1.88991        5.99328        0.04906
C          2.40584        3.43104       -3.06419
H          2.43768        3.74349       -4.11078
C          2.09677        4.35904       -2.07085
H          1.88447        5.39592       -2.34426
C          2.39171       -0.07391        1.71093
C          3.74491        0.20093        1.88905
H          4.47670       -0.34321        1.28865
C          1.41616        0.58376        2.45741
H          0.36397        0.35021        2.29546
C          4.15094        1.17312        2.80827
C          5.60719        1.50339        2.96133
H          6.23412        0.60655        2.85134
H          5.92705        2.22083        2.18736
H          5.81887        1.95665        3.94017
C          1.81859        1.54943        3.37670
H          1.06505        2.08269        3.96108
C          3.17008        1.84644        3.54746
H          3.47104        2.60970        4.26985
