86
Cat505.ts34.5.log	Energy: -2786908.2396859
C          1.99976       -2.35569       -2.21125
H          1.90208       -2.29271       -3.29805
H          3.02705       -2.28946       -1.84165
C          1.05231       -3.12730       -1.48754
H          0.21010       -3.58797       -2.01134
H          1.39613       -3.69843       -0.61834
H          0.55225       -2.13246       -0.23333
Rh         0.63823       -0.93604       -1.31967
O          2.81433       -0.52437        1.37456
C          3.81791        0.56603       -0.85204
C          1.76502        1.78241        0.67056
O         -1.63016        1.34513       -0.74276
C         -2.86054       -1.09018       -1.01924
C         -1.50705       -0.37974        1.37608
P         -1.32896       -0.27731       -0.43924
P          2.21740        0.16265       -0.04871
C          0.30930       -0.03786       -2.95818
O          0.08275        0.52216       -3.93865
C          2.65039       -1.85926        1.61577
C          3.56861       -2.78431        1.12181
H          4.41901       -2.43149        0.53417
C          1.55715       -2.29205        2.36410
H          0.84416       -1.55439        2.73433
C          3.38443       -4.14146        1.37858
H          4.10612       -4.86171        0.98340
C          1.38452       -3.65037        2.61004
H          0.51800       -3.97822        3.19123
C          2.29117       -4.60126        2.12302
C          2.11191       -6.06256        2.41717
H          2.58575       -6.69022        1.64874
H          1.04774       -6.33512        2.47222
H          2.56707       -6.33048        3.38544
C          4.99629        0.69189       -0.10644
H          4.96998        0.52863        0.97324
C          3.86234        0.75970       -2.23536
H          2.95029        0.63671       -2.82447
C          6.19777        1.01122       -0.72958
H          7.12072        1.10693       -0.15514
C          5.05638        1.09295       -2.86936
H          5.09459        1.24711       -3.94884
C          6.21877        1.21459       -2.11025
Cl         7.71202        1.61324       -2.89039
C          1.03855        2.67787       -0.12163
H          0.79095        2.41474       -1.15242
C          2.03410        2.10912        2.00397
H          2.58665        1.40508        2.62825
C          0.56880        3.87485        0.40829
H         -0.01888        4.56339       -0.20046
C          1.56554        3.30276        2.54655
H          1.75943        3.55893        3.58965
C          0.82564        4.17380        1.74672
Cl         0.20282        5.63905        2.42906
C         -2.86650        1.93554       -0.75443
C         -3.35494        2.59010        0.37461
H         -2.75325        2.62481        1.28301
C         -3.62491        1.90788       -1.92613
H         -3.22461        1.39587       -2.80331
C         -4.60935        3.19684        0.32849
H         -4.98513        3.70709        1.21961
C         -4.87443        2.51527       -1.95493
H         -5.46320        2.47908       -2.87571
C         -5.39405        3.16779       -0.82862
C         -6.73652        3.83780       -0.87901
H         -7.11375        4.06142        0.12886
H         -7.48109        3.20898       -1.39024
H         -6.68380        4.79069       -1.43134
C         -2.80609       -1.85347       -2.18908
H         -1.83766       -1.98664       -2.68137
C         -4.09449       -0.91514       -0.37538
H         -4.15916       -0.31843        0.53718
C         -3.95667       -2.43017       -2.71969
H         -3.91841       -3.02640       -3.63261
C         -5.25062       -1.48491       -0.89401
H         -6.21409       -1.34509       -0.40175
C         -5.17328       -2.23831       -2.06691
Cl        -6.61095       -2.94673       -2.71682
C         -1.06815        0.67564        2.18227
H         -0.71790        1.60127        1.72299
C         -1.93179       -1.56781        1.98342
H         -2.26473       -2.40851        1.36950
C         -1.05779        0.55567        3.56896
H         -0.70966        1.37870        4.19490
C         -1.93032       -1.69861        3.36851
H         -2.26502       -2.62140        3.84511
C         -1.48922       -0.63360        4.15531
Cl        -1.47091       -0.79591        5.87740
