110
Cat521.ts34.5.log	Energy: -1830825.9308418
C         -1.65135        2.62879        3.24892
H         -1.28053        3.65309        3.33682
H         -2.72731        2.56219        3.06314
C         -1.02166        1.61470        4.02969
H         -0.14760        1.86334        4.63779
H         -1.64833        0.83870        4.48192
H         -0.73236        0.36363        2.96158
Rh        -0.39007        1.53998        1.89706
O         -2.01872       -0.99983        0.48484
C         -3.75423        1.20878        0.78755
C         -1.79611        1.01011       -1.35901
O          1.49337        0.29222       -0.47029
C          2.98000        0.75870        1.89333
C          1.19034       -1.57700        1.53404
P          1.32813        0.24629        1.20218
P         -1.99754        0.69221        0.45975
C          0.50993        3.11291        1.35819
O          1.12171        4.04509        1.05659
C         -2.78128       -1.87180       -0.24507
C         -2.55340       -2.10267       -1.60269
H         -1.76151       -1.56522       -2.12367
C         -3.74986       -2.62479        0.42086
H         -3.89341       -2.46214        1.48949
C         -3.33564       -3.02971       -2.29062
H         -3.15197       -3.19022       -3.35669
C         -4.52046       -3.54451       -0.27656
H         -5.28826       -4.11022        0.25888
C         -4.34268       -3.75473       -1.65040
C         -5.22354       -4.70970       -2.40091
H         -4.82125       -4.93212       -3.39943
H         -6.23380       -4.28767       -2.53603
H         -5.34100       -5.66215       -1.86160
H         -3.81040        1.30658        1.88102
H         -3.77545        2.23999        0.39328
C         -4.92239        0.39780        0.30954
C         -5.24966        0.25302       -1.04445
H         -4.65922        0.75527       -1.81188
C         -5.73227       -0.24395        1.25387
H         -5.49320       -0.12770        2.31585
C         -6.32943       -0.53651       -1.42764
H         -6.56605       -0.64780       -2.48848
C         -6.82251       -1.03772        0.88911
C         -7.62882       -1.75788        1.93026
H         -7.20718       -2.75855        2.12758
H         -7.63636       -1.21371        2.88580
H         -8.67051       -1.90170        1.60859
C         -7.11055       -1.18051       -0.47153
H         -7.95690       -1.79835       -0.78414
H         -0.85418        0.49657       -1.60503
H         -2.61112        0.52435       -1.91263
C         -1.68959        2.46490       -1.70172
C         -2.82448        3.25185       -1.93715
H         -3.82152        2.80584       -1.89837
C         -0.43029        3.06415       -1.78991
H          0.45167        2.44356       -1.61803
C         -2.68851        4.60326       -2.24287
H         -3.57843        5.20903       -2.43079
C         -0.27426        4.41841       -2.10209
C          1.09482        5.02870       -2.17248
H          1.80085        4.36619       -2.69580
H          1.07986        5.99705       -2.69247
H          1.49073        5.19381       -1.15756
C         -1.42424        5.18314       -2.32337
H         -1.32643        6.24370       -2.57097
C          2.60927        0.52707       -1.21831
C          3.16178       -0.50693       -1.97612
H          2.71124       -1.49833       -1.93329
C          3.16081        1.80768       -1.28493
H          2.70647        2.62420       -0.71984
C          4.28209       -0.25938       -2.76109
H          4.70685       -1.07964       -3.34730
C          4.28991        2.03575       -2.07135
H          4.71806        3.04127       -2.10684
C          4.87914        1.00845       -2.81493
C          6.11604        1.24262       -3.63255
H          6.99896        0.78438       -3.15609
H          6.32445        2.31520       -3.75081
H          6.02510        0.80087       -4.63655
H          3.22944        1.70068        1.38167
H          2.69206        1.04564        2.91630
C          4.14622       -0.18214        1.93026
C          4.34138       -1.00295        3.05010
H          3.65145       -0.93761        3.89615
C          5.06639       -0.25789        0.88073
H          4.94295        0.39155        0.01270
C          5.41016       -1.89384        3.09513
H          5.55016       -2.53175        3.97112
C          6.14457       -1.14801        0.90846
C          7.11050       -1.19060       -0.23964
H          6.57585       -1.18277       -1.20155
H          7.77112       -0.30793       -0.23136
H          7.74851       -2.08477       -0.20075
C          6.30185       -1.97389        2.02667
H          7.13608       -2.67973        2.06404
H          1.70088       -1.74741        2.49496
H          0.11293       -1.72585        1.69011
C          1.68561       -2.50314        0.46317
C          0.81592       -2.86544       -0.57241
H         -0.20524       -2.48527       -0.56784
C          2.98524       -3.01706        0.45848
H          3.66912       -2.75561        1.26726
C          1.24591       -3.71128       -1.58969
H          0.55253       -3.99422       -2.38577
C          3.43760       -3.86023       -0.56300
C          4.85498       -4.35482       -0.56760
H          5.24372       -4.46796        0.45438
H          4.94592       -5.32045       -1.08603
H          5.51554       -3.63815       -1.08363
C          2.55113       -4.20200       -1.59036
H          2.88452       -4.86638       -2.39263
