110
Cat579.ts34.5.log	Energy: -1830830.0613414
C         -1.42924        2.12070        3.45286
H         -1.02500        3.10682        3.69576
H         -2.51423        2.10880        3.31375
C         -0.79632        0.97805        4.02850
H          0.11011        1.10759        4.62660
H         -1.43087        0.16068        4.38980
H         -0.58905       -0.05791        2.80137
Rh        -0.26651        1.24428        1.87702
O         -2.14966       -1.01078        0.31256
C         -3.69653        1.22961        0.90516
C         -1.87216        1.17974       -1.35292
O          2.23509        0.26332       -0.29151
C          2.80445       -0.36344        2.34987
C          0.92157       -1.83280        0.71570
P          1.41996       -0.08650        1.13007
P         -1.98734        0.66297        0.43107
C          0.44013        2.96307        1.49233
O          0.80593        4.04329        1.33936
C         -3.00194       -1.89615       -0.27870
C         -3.41495       -1.80308       -1.60666
H         -3.10009       -0.96140       -2.22032
C         -3.38365       -2.98936        0.52024
C         -2.91451       -3.06892        1.94009
H         -1.81675       -3.13988        1.99549
H         -3.19044       -2.16260        2.50308
H         -3.34343       -3.94198        2.45054
C         -4.24752       -2.78295       -2.14305
H         -4.58034       -2.69297       -3.17947
C         -4.20598       -3.96313       -0.04729
H         -4.51157       -4.81491        0.56683
C         -4.64545       -3.86708       -1.36704
H         -5.29337       -4.63952       -1.78690
H         -3.76849        1.02676        1.98433
H         -3.63803        2.32563        0.79830
C         -4.87545        0.64568        0.18979
C         -5.33375        1.15025       -1.03216
H         -4.87023        2.03652       -1.46958
C         -5.53179       -0.46503        0.73511
H         -5.19264       -0.85804        1.69797
C         -6.38992        0.53107       -1.69824
H         -6.73508        0.93185       -2.65450
C         -6.58988       -1.09919        0.08369
C         -7.27369       -2.28679        0.69414
H         -7.40365       -3.09040       -0.04570
H         -6.69429       -2.69474        1.53383
H         -8.27455       -2.01828        1.07084
C         -7.00586       -0.59013       -1.15317
H         -7.82692       -1.07566       -1.68770
H         -1.12888        0.49822       -1.79398
H         -2.83743        1.00818       -1.85091
C         -1.42785        2.60254       -1.51248
C         -2.34371        3.65821       -1.44832
H         -3.40717        3.45521       -1.30611
C         -0.07451        2.90056       -1.70926
H          0.64852        2.08086       -1.74863
C         -1.91046        4.97549       -1.57977
H         -2.63490        5.79229       -1.53280
C          0.37712        4.21589       -1.84519
C          1.83451        4.52015       -2.00908
H          2.26812        4.82112       -1.04208
H          2.40025        3.64443       -2.35386
H          1.99760        5.34576       -2.71785
C         -0.56215        5.25181       -1.77721
H         -0.22734        6.28768       -1.87966
C          3.13227        1.24725       -0.55034
C          3.46312        2.25843        0.35175
H          2.94926        2.32560        1.30979
C          3.76334        1.16718       -1.80821
C          3.38290        0.07523       -2.75564
H          3.95961        0.13959       -3.68822
H          3.54286       -0.91441       -2.30158
H          2.31033        0.11334       -3.00174
C          4.45053        3.18798        0.02463
H          4.70071        3.97454        0.74009
C          4.74831        2.11017       -2.10504
H          5.24991        2.05084       -3.07500
C          5.10232        3.11383       -1.20105
H          5.87873        3.83652       -1.46035
H          3.24229        0.62359        2.55646
H          2.26418       -0.65655        3.26437
C          3.84850       -1.37218        1.98435
C          3.83432       -2.65386        2.54837
H          3.08226       -2.90670        3.30106
C          4.83732       -1.07001        1.04008
H          4.87184       -0.06998        0.60307
C          4.77338       -3.60689        2.15773
H          4.75110       -4.60497        2.60187
C          5.77831       -2.01620        0.62770
C          6.81920       -1.65597       -0.39219
H          6.47013       -0.84513       -1.04797
H          7.74551       -1.30880        0.09525
H          7.08428       -2.52031       -1.01863
C          5.73266       -3.29508        1.19767
H          6.45756       -4.05205        0.88571
H          1.34967       -2.46621        1.50737
H         -0.16984       -1.83470        0.82505
C          1.30479       -2.35594       -0.63696
C          0.43349       -2.19995       -1.72013
H         -0.53154       -1.71540       -1.56545
C          2.51792       -3.01902       -0.84233
H          3.20073       -3.15509       -0.00190
C          0.77930       -2.68972       -2.97661
H          0.08469       -2.57410       -3.81243
C          2.88316       -3.51232       -2.09872
C          4.21727       -4.17213       -2.29665
H          4.56956       -4.64956       -1.37121
H          4.18170       -4.93164       -3.09133
H          4.97947       -3.42882       -2.58731
C          1.99658       -3.33930       -3.16780
H          2.26088       -3.72368       -4.15697
