62
Cat556.ts34.5.log	Energy: -1341451.8327535
C          1.04716       -3.87057        0.36479
H          0.57725       -4.70063       -0.16859
H          2.10940       -3.72205        0.15284
C          0.55044       -3.52401        1.65166
H         -0.33175       -4.03156        2.05072
H          1.26460       -3.22365        2.42554
H          0.40128       -1.85979        1.58036
Rh        -0.12579       -2.09131        0.07228
O          1.52967        0.74040       -0.02550
O          3.10780       -1.29664       -0.23391
O          1.88733       -0.49451       -2.22397
O         -1.89296        0.57434       -0.65958
O         -3.23050       -0.96568        0.73214
O         -1.37118        0.34596        1.86997
P         -1.65481       -0.53757        0.52897
P          1.60906       -0.81049       -0.63292
C         -1.14770       -2.89525       -1.32220
O         -1.76521       -3.38125       -2.16087
C          2.59333        1.58300        0.13768
C          3.04753        2.36558       -0.92170
H          2.55764        2.27616       -1.89248
C          3.18214        1.65019        1.41057
C          2.66486        0.77426        2.50993
H          1.56647        0.81928        2.56693
H          2.92125       -0.27967        2.31303
H          3.09204        1.05877        3.48113
C          4.12016        3.23336       -0.72591
H          4.48103        3.84690       -1.55468
C          4.25315        2.53136        1.58026
H          4.72677        2.60180        2.56344
C          4.72530        3.31486        0.52656
H          5.56526        3.99439        0.68762
C          4.33134       -0.93044       -0.85457
H          4.18032       -0.69392       -1.91642
H          4.77367       -0.06128       -0.34516
H          5.01011       -1.79008       -0.76396
C          0.80098       -0.13625       -3.05088
H         -0.08749       -0.75129       -2.83218
H          0.52928        0.92341       -2.91223
H          1.10903       -0.29753       -4.09261
C         -2.73496        1.66328       -0.60632
C         -4.10880        1.49426       -0.76418
H         -4.50030        0.48491       -0.89020
C         -2.16053        2.93376       -0.44531
C         -0.67893        3.08426       -0.29583
H         -0.28680        2.45571        0.51668
H         -0.15351        2.74980       -1.20355
H         -0.40466        4.13021       -0.10428
C         -4.94588        2.60748       -0.74228
H         -6.02391        2.47692       -0.86220
C         -3.02599        4.03225       -0.42959
H         -2.60021        5.03141       -0.30242
C         -4.40433        3.87961       -0.57144
H         -5.05446        4.75727       -0.55356
C         -3.55140       -2.11525        1.48576
H         -2.83077       -2.92673        1.28475
H         -3.55113       -1.89606        2.56692
H         -4.55793       -2.43756        1.18677
C         -2.31991        1.16773        2.52949
H         -2.15926        2.22251        2.26299
H         -3.35008        0.88824        2.26454
H         -2.17379        1.04207        3.61211
