112
Cat596.ts34.5.log	Energy: -2735477.9007236
C          0.32583       -3.80377        0.16821
H         -0.32161       -4.43368       -0.44785
H          1.39678       -4.01349        0.07884
C         -0.18243       -3.31734        1.40351
H         -1.21237       -3.53402        1.70671
H          0.51010       -3.25304        2.25102
H          0.05308       -1.69752        1.41207
Rh        -0.23561       -1.75590       -0.17694
O          2.02407        0.46476        0.92905
C          3.10505       -1.95007       -0.00095
C          2.47020        0.28806       -1.73073
O         -2.80128        0.04301       -1.13579
C         -3.18340       -0.75010        1.43602
C         -1.31780        1.45796        0.76401
P         -1.88365       -0.21409        0.23947
P          1.80555       -0.67743       -0.30371
C         -0.83854       -2.11380       -1.92644
O         -1.19521       -2.32176       -3.00309
C          2.96306        1.44302        0.96998
C          4.09649        1.29344        1.77202
H          4.22348        0.35929        2.31832
C          2.77263        2.62458        0.24977
H          1.86804        2.73923       -0.34787
C          5.04650        2.30768        1.83873
H          5.93940        2.19830        2.45686
C          3.72396        3.63822        0.30449
H          3.58793        4.55945       -0.26416
C          4.86090        3.47141        1.09332
Cl         6.06430        4.72437        1.14550
C          3.48635       -2.74891       -1.09911
O          2.95533       -2.38337       -2.28100
C          3.21989       -3.12385       -3.43581
H          2.65793       -2.64148       -4.24542
H          4.29439       -3.11496       -3.68983
H          2.88112       -4.16968       -3.33646
C          3.51661       -2.37106        1.27478
O          3.04271       -1.67965        2.34231
C          3.33422       -2.13740        3.63031
H          2.81799       -1.46337        4.32593
H          4.41630       -2.10645        3.84936
H          2.96977       -3.16714        3.79283
C          4.36728       -3.47575        1.43239
H          4.70314       -3.78087        2.42219
C          4.33087       -3.85248       -0.95348
H          4.62933       -4.44411       -1.81809
C          4.77793       -4.19600        0.31800
H          5.44073       -5.05486        0.44541
C          3.85040        0.51448       -1.92513
O          4.67364        0.03478       -0.98069
C          6.04088        0.32447       -1.01954
H          6.47557       -0.13322       -0.12208
H          6.52676       -0.10764       -1.91150
H          6.22552        1.41187       -0.99116
C          1.57620        0.82932       -2.67858
O          0.26672        0.69865       -2.43004
C         -0.67080        0.99244       -3.43191
H         -1.64693        0.73720       -3.00685
H         -0.48554        0.39015       -4.33717
H         -0.65999        2.06331       -3.69824
C          2.05096        1.50477       -3.81411
H          1.35500        1.90400       -4.54989
C          4.32554        1.20844       -3.04326
H          5.39204        1.37998       -3.18075
C          3.41675        1.68445       -3.98083
H          3.78396        2.22133       -4.85912
C         -4.08179        0.47189       -1.20878
C         -4.66502        1.34364       -0.28470
H         -4.09261        1.70694        0.57010
C         -4.82686        0.01463       -2.29937
H         -4.35128       -0.67637       -2.99803
C         -5.98523        1.75050       -0.45592
H         -6.44963        2.42832        0.26228
C         -6.14278        0.42788       -2.47608
H         -6.72901        0.07429       -3.32590
C         -6.71897        1.29581       -1.54965
Cl        -8.36442        1.81279       -1.75967
C         -3.58415       -0.08842        2.61369
O         -3.25709        1.21058        2.72658
C         -3.33763        1.85363        3.96536
H         -2.85698        2.83215        3.83526
H         -4.38322        2.00485        4.28627
H         -2.80006        1.29051        4.74743
C         -3.70662       -2.04298        1.20598
O         -3.44207       -2.56200       -0.00024
C         -3.65363       -3.92051       -0.25613
H         -3.22257       -4.11616       -1.24610
H         -4.72873       -4.16963       -0.27544
H         -3.14791       -4.55848        0.48902
C         -4.45942       -2.71233        2.17678
H         -4.83704       -3.71769        1.99351
C         -4.33376       -0.75237        3.59338
H         -4.62218       -0.24021        4.51064
C         -4.74700       -2.06080        3.37072
H         -5.33699       -2.57379        4.13407
C         -0.58130        1.49324        1.96307
O         -0.58429        0.34384        2.66226
C          0.35870        0.14372        3.67887
H          0.23237       -0.89503        4.01081
H          1.38010        0.28085        3.29265
H          0.17948        0.81346        4.53844
C         -1.39539        2.64191        0.00705
O         -2.09295        2.60308       -1.14388
C         -2.33356        3.77994       -1.85613
H         -2.98162        3.50336       -2.69780
H         -1.40173        4.22327       -2.25024
H         -2.85429        4.53306       -1.23952
C         -0.76887        3.81591        0.45374
H         -0.83629        4.73256       -0.13029
C          0.05935        2.65200        2.40521
H          0.64426        2.65118        3.32384
C         -0.04832        3.80800        1.64179
H          0.45339        4.72031        1.97218
