84
Cat539.ts34.5.log	Energy: -1897552.2508115
C         -1.36023        0.60889       -4.07757
H         -1.22820       -0.14658       -4.85568
H         -2.39561        0.92314       -3.91924
C         -0.30318        1.52989       -3.84256
H          0.64345        1.42246       -4.37851
H         -0.55412        2.57052       -3.60923
H         -0.09012        1.51577       -2.21320
Rh        -0.36988       -0.07966       -2.29046
O         -2.61981        1.45857       -0.16281
O         -3.61059       -0.36391       -1.51965
O         -2.00803       -0.96353        0.42490
O          1.95522       -1.73973       -0.61338
O          2.73392        0.58480       -1.35419
O          1.12480        0.37171        0.58618
P          1.36677       -0.23206       -0.92423
P         -2.14434        0.02420       -0.89503
C         -0.22847       -1.87255       -2.93986
O         -0.14195       -2.95547       -3.30282
C         -1.70427        2.37300        0.28559
C         -1.44310        3.50431       -0.48828
H         -1.96016        3.62306       -1.44225
C         -1.05902        2.19422        1.50966
H         -1.25061        1.29542        2.09758
C         -0.54312        4.46642       -0.03614
H         -0.32371        5.36251       -0.61930
C         -0.15700        3.15063        1.96561
H          0.37212        3.02275        2.91129
C          0.08633        4.27473        1.18767
F          0.95988        5.19140        1.61780
C         -4.83746       -0.38788       -0.89286
C         -5.51962        0.79724       -0.62525
H         -5.06360        1.74849       -0.89886
C         -5.39303       -1.62368       -0.56756
H         -4.83506       -2.53243       -0.79806
C         -6.75698        0.73752        0.01281
H         -7.29209        1.66437        0.23332
C         -6.62800       -1.67022        0.07173
H         -7.05607       -2.63737        0.34458
C         -7.31085       -0.49096        0.37020
H         -8.27792       -0.53032        0.87620
C         -2.89191       -1.31984        1.41366
C         -2.92832       -2.67324        1.75100
H         -2.28728       -3.36687        1.20314
C         -3.69270       -0.39777        2.08959
H         -3.66661        0.65474        1.81188
C         -3.78809       -3.11088        2.75482
H         -3.81873       -4.17237        3.01235
C         -4.55633       -0.85196        3.08331
H         -5.19859       -0.13271        3.59656
C         -4.61075       -2.20337        3.42101
H         -5.29175       -2.54813        4.20195
C          3.27502       -2.08988       -0.45341
C          3.77737       -2.35702        0.81929
H          3.12510       -2.26553        1.68791
C          4.09044       -2.21546       -1.57845
H          3.67376       -2.00878       -2.56529
C          5.10973       -2.73310        0.96938
H          5.52922       -2.94449        1.95436
C          5.42349       -2.58775       -1.43109
H          6.08470       -2.68878       -2.29338
C          5.91828       -2.83851       -0.15584
F          7.19465       -3.19332       -0.01120
C          3.46943        1.42671       -0.55339
C          4.74103        1.04074       -0.13523
H          5.13168        0.06718       -0.43333
C          2.94121        2.66524       -0.18975
H          1.93922        2.93836       -0.52416
C          5.48194        1.90442        0.67018
H          6.47802        1.60274        1.00248
C          3.68500        3.51526        0.62499
H          3.25539        4.47161        0.92976
C          4.95659        3.13665        1.05889
H          5.53812        3.80399        1.69874
C          1.43249       -0.16178        1.80897
C          2.42728        0.43341        2.58415
H          2.97380        1.29123        2.19094
C          0.70823       -1.25511        2.28484
H         -0.07442       -1.68326        1.65857
C          2.71058       -0.09337        3.84295
H          3.49427        0.36599        4.45000
C          1.00362       -1.77197        3.54432
H          0.43718       -2.62861        3.91698
C          2.00779       -1.19811        4.32504
H          2.23715       -1.60680        5.31158
