110
Cat559.ts34.5.log	Energy: -1642712.2939183
C         -1.18076        1.52547       -3.11813
H         -0.94647        1.05162       -4.07483
H         -2.24424        1.72978       -2.96491
C         -0.22613        2.42241       -2.56286
H          0.73248        2.56719       -3.06810
H         -0.58708        3.33105       -2.06699
H         -0.02465        1.95256       -1.02762
Rh        -0.17842        0.42212       -1.55927
O         -2.33511        1.58866        0.85794
C         -3.67097        0.36418       -0.99319
C         -2.11988       -1.14850        1.09050
O          1.66073       -0.85084        1.05500
C          3.05758       -0.91076       -1.33517
C          2.52335        1.50268        0.40743
P          1.74712        0.02627       -0.40164
P         -2.02893        0.24445       -0.13889
C         -0.00836       -1.11723       -2.62463
O          0.09814       -2.07378       -3.26333
C         -1.40467        2.26395        1.57216
C         -0.48509        1.62262        2.40469
H         -0.44485        0.53403        2.42946
C         -1.43410        3.66868        1.48575
C         -2.41558        4.32874        0.56762
H         -2.28431        5.41932        0.56171
H         -2.30584        3.95625       -0.46315
H         -3.45151        4.10313        0.86635
C          0.38520        2.37277        3.19356
H          1.09388        1.85839        3.84717
C         -0.54505        4.39610        2.27971
H         -0.56328        5.48806        2.22228
C          0.35569        3.76312        3.13761
H          1.03610        4.35628        3.75246
H         -3.57907        1.38766       -1.40688
C         -4.93028        0.35640       -0.12798
H         -4.81114        1.04409        0.72223
H         -5.08427       -0.65326        0.28923
C         -6.15164        0.73508       -0.96264
H         -7.05977        0.70513       -0.33853
H         -6.04390        1.78090       -1.30373
C         -6.30768       -0.17745       -2.17447
H         -7.16917        0.13750       -2.78558
H         -6.53289       -1.20213       -1.82637
C         -5.03770       -0.20838       -3.01857
H         -4.87310        0.78843       -3.46729
H         -5.15138       -0.91113       -3.85982
C         -3.81698       -0.58486       -2.18443
H         -3.93215       -1.62031       -1.82475
H         -2.90286       -0.56918       -2.79635
H         -1.06232       -1.26177        1.39166
C         -2.51915       -2.46782        0.42588
H         -1.90069       -2.64838       -0.46882
H         -3.56637       -2.40177        0.08513
C         -2.38711       -3.62967        1.40503
H         -2.71345       -4.56490        0.92137
H         -1.32369       -3.76507        1.65494
C         -3.17323       -3.38587        2.68721
H         -3.02009       -4.22009        3.39106
H         -4.25530       -3.36373        2.46093
C         -2.77361       -2.06369        3.33153
H         -1.71680       -2.12051        3.65101
H         -3.36703       -1.88006        4.24212
C         -2.94183       -0.90161        2.35743
H         -4.00725       -0.80015        2.10010
H         -2.65173        0.04657        2.83250
C          1.40039       -2.16620        1.23582
C          1.10455       -3.05883        0.20211
H          1.00405       -2.70118       -0.82047
C          1.46778       -2.61946        2.56987
C          1.74692       -1.64407        3.67139
H          1.78190       -2.14908        4.64615
H          2.70498       -1.12492        3.51200
H          0.97368       -0.86053        3.71711
C          0.94009       -4.41596        0.47622
H          0.72101       -5.10151       -0.34553
C          1.28983       -3.98185        2.81394
H          1.35447       -4.33929        3.84543
C          1.04278       -4.88698        1.78097
H          0.91597       -5.94913        1.99949
H          2.47058       -1.70537       -1.82771
C          4.17135       -1.60400       -0.54960
H          3.75719       -2.21450        0.26560
H          4.82671       -0.85407       -0.08158
C          5.00043       -2.47655       -1.48918
H          5.81392       -2.96512       -0.92869
H          4.36177       -3.28929       -1.87990
C          5.56652       -1.67087       -2.65409
H          6.12568       -2.32757       -3.34022
H          6.29627       -0.93818       -2.26333
C          4.47004       -0.92544       -3.40815
H          3.80510       -1.65326       -3.90679
H          4.90634       -0.30398       -4.20704
C          3.63600       -0.05991       -2.46882
H          4.27535        0.73321       -2.04466
H          2.82097        0.44075       -3.01732
H          1.71116        1.77114        1.10586
C          2.72943        2.70979       -0.50845
H          1.82760        2.89523       -1.10475
H          3.54491        2.50725       -1.22298
C          3.07495        3.94776        0.31458
H          3.24075        4.80765       -0.35485
H          2.20761        4.20300        0.94811
C          4.29738        3.71784        1.19596
H          4.49650        4.60621        1.81744
H          5.18721        3.58306        0.55385
C          4.12544        2.48226        2.07223
H          3.31530        2.66211        2.79998
H          5.03991        2.29557        2.65888
C          3.78087        1.25038        1.23890
H          4.62817        1.03264        0.56681
H          3.64474        0.36990        1.88287
