102
Cat561.ts34.5.log	Energy: -1920888.0625844
C         -1.61785       -3.19125       -1.38173
H         -1.42710       -4.11771       -0.83385
H         -2.67595       -2.94213       -1.50525
C         -0.68912       -2.79766       -2.38257
H          0.22867       -3.37272       -2.53697
H         -1.07647       -2.34801       -3.30356
H         -0.36029       -1.23035       -2.06397
Rh        -0.43511       -1.62646       -0.49022
O         -2.50185        1.18589       -1.13351
C         -3.82434       -0.87708       -0.31063
C         -2.33559        0.61822        1.53087
O          1.76806       -0.08935        1.35161
C          3.04734       -1.64999       -0.55470
C          1.98024        0.90265       -1.21137
P          1.58136       -0.59274       -0.24825
P         -2.16676       -0.13320       -0.12704
C         -0.25256       -2.60293        1.11478
O         -0.17411       -3.19921        2.09737
C         -1.74181        2.29209       -1.32726
C         -0.77760        2.73699       -0.42079
H         -0.57310        2.16113        0.48120
C         -2.00884        3.01575       -2.50550
C         -3.04040        2.50942       -3.46585
H         -3.09922        3.14813       -4.35781
H         -2.81371        1.48015       -3.78674
H         -4.03742        2.47825       -2.99711
C         -0.08881        3.92253       -0.67036
H          0.66124        4.26505        0.04577
C         -1.29936        4.19583       -2.72942
H         -1.50022        4.76274       -3.64288
C         -0.34697        4.65850       -1.82180
H          0.19756        5.58319       -2.02382
C         -4.20835       -1.86234        0.61395
H         -3.54406       -2.11226        1.44654
C         -4.68010       -0.58954       -1.37190
H         -4.39452        0.17190       -2.09877
C         -5.41648       -2.52454        0.48611
H         -5.72688       -3.28654        1.20341
C         -5.90133       -1.25456       -1.51396
H         -6.54842       -1.00163       -2.35431
C         -6.27691       -2.22627       -0.58280
O         -7.43065       -2.92284       -0.62880
C         -8.32740       -2.67078       -1.67238
H         -7.88126       -2.88617       -2.65974
H         -9.18592       -3.33702       -1.51896
H         -8.68268       -1.62484       -1.66649
C         -3.42120        1.45618        1.83726
H         -4.18272        1.65150        1.07762
C         -1.37122        0.38142        2.50777
H         -0.50341       -0.23609        2.26469
C         -3.53179        2.03685        3.08748
H         -4.36572        2.69384        3.34165
C         -1.47881        0.94867        3.77869
H         -0.71028        0.73591        4.52214
C         -2.56098        1.78446        4.07246
O         -2.75288        2.38788        5.25972
C         -1.81467        2.18392        6.27944
H         -0.80998        2.53860        5.98905
H         -2.15982        2.76329        7.14506
H         -1.74477        1.11997        6.56615
C          2.88146        0.24356        2.06950
C          3.89432       -0.68468        2.31840
H          3.81116       -1.69017        1.90755
C          2.92781        1.53314        2.63335
C          1.80596        2.49884        2.40812
H          2.02147        3.46907        2.87629
H          1.63251        2.66047        1.33433
H          0.85892        2.11747        2.81925
C          4.99451       -0.32224        3.09246
H          5.78625       -1.05244        3.27525
C          4.04149        1.86525        3.40967
H          4.09168        2.86543        3.84936
C          5.07554        0.95742        3.63448
H          5.93552        1.24730        4.24235
C          4.29922       -1.16159       -0.96548
H          4.43193       -0.09899       -1.17314
C          2.91854       -3.02634       -0.34346
H          1.93961       -3.42437       -0.06301
C          5.38150       -2.01189       -1.11977
H          6.35624       -1.63734       -1.43763
C          3.99936       -3.89310       -0.48485
H          3.85505       -4.95853       -0.30447
C          5.24655       -3.38565       -0.87050
O          6.35123       -4.13282       -1.03865
C          6.27867       -5.51276       -0.80653
H          5.56355       -6.00616       -1.48775
H          7.28200       -5.91577       -0.99298
H          5.99066       -5.73846        0.23516
C          1.29315        1.13631       -2.41233
H          0.50753        0.44228       -2.71922
C          2.95115        1.82859       -0.81718
H          3.51363        1.68266        0.10743
C          1.56990        2.24330       -3.19378
H          1.02250        2.43775       -4.11688
C          3.22387        2.96166       -1.58284
H          3.97474        3.66962       -1.23168
C          2.52819        3.17643       -2.77753
O          2.69874        4.24879       -3.57251
C          3.59585        5.24726       -3.17607
H          4.62978        4.86674       -3.10084
H          3.56134        6.02668       -3.94777
H          3.31023        5.69156       -2.20605
