92
Cat593.ts34.5.log	Energy: -2259568.8465227
C         -2.30802        0.51394       -3.02589
H         -2.08723        0.02479       -3.97819
H         -3.33820        0.39127       -2.67802
C         -1.61113        1.71034       -2.70056
H         -0.82521        2.08027       -3.36489
H         -2.15449        2.50695       -2.17962
H         -1.08908        1.47235       -1.14271
Rh        -0.78803       -0.04924       -1.59873
O         -3.49463        0.17875        0.54983
C         -3.36119       -2.23846       -0.47202
C         -1.62040       -1.44278        1.58739
O          1.79412       -1.19036        0.07610
C          2.58576        0.93592       -1.46406
C          1.15484        1.31995        0.96065
P          1.17264        0.25955       -0.52456
P         -2.26305       -0.84933       -0.01590
C         -0.09443       -1.48033       -2.63434
O          0.36637       -2.35427       -3.22649
C         -3.43116        1.52940        0.44386
C         -2.37386        2.26544        0.98712
H         -1.55872        1.75491        1.50271
C         -4.47122        2.18980       -0.21587
H         -5.28540        1.59530       -0.63443
C         -2.35731        3.65228        0.86417
H         -1.52936        4.22805        1.27858
C         -4.46106        3.57593       -0.33416
H         -5.26916        4.09807       -0.84888
C         -3.39739        4.30151        0.20250
Cl        -3.36854        6.02975        0.04581
C         -4.23864       -2.80074        0.46596
H         -4.25344       -2.42153        1.49076
C         -3.35255       -2.74003       -1.77324
H         -2.67335       -2.30179       -2.50780
C         -5.08446       -3.83871        0.10036
H         -5.76404       -4.26684        0.84301
C         -4.19911       -3.78848       -2.13193
H         -4.17554       -4.17291       -3.15526
C         -5.07772       -4.35463       -1.20515
C         -5.98335       -5.49070       -1.57928
H         -5.93494       -5.70905       -2.65507
H         -5.70808       -6.40975       -1.03681
H         -7.03065       -5.26717       -1.32270
C         -2.04341       -0.92634        2.81339
H         -2.83554       -0.17493        2.83763
C         -0.60671       -2.41023        1.56944
H         -0.24550       -2.79968        0.61446
C         -1.44809       -1.35774        3.99942
H         -1.78275       -0.93651        4.95180
C         -0.02430       -2.83843        2.75495
H          0.77551       -3.58357        2.72043
C         -0.42796       -2.31338        3.99309
C          0.21813       -2.77832        5.26522
H          1.31587       -2.71952        5.20125
H         -0.10619       -2.17793        6.12674
H         -0.03471       -3.83023        5.47590
C          3.11352       -1.43924        0.31169
C          3.65877       -1.25307        1.58320
H          3.02468       -0.88670        2.39084
C          3.91444       -1.91559       -0.72882
H          3.46876       -2.05869       -1.71488
C          5.00563       -1.52563        1.80950
H          5.44383       -1.38127        2.79836
C          5.25965       -2.18663       -0.50802
H          5.89440       -2.55167       -1.31680
C          5.80144       -1.98395        0.76123
Cl         7.48179       -2.31047        1.03916
C          2.52835        0.93649       -2.85952
H          1.61063        0.59339       -3.34639
C          3.75617        1.38975       -0.83579
H          3.82267        1.40230        0.25435
C          3.61920        1.36540       -3.61293
H          3.55709        1.35630       -4.70447
C          4.83957        1.81455       -1.59243
H          5.74735        2.15437       -1.08619
C          4.79250        1.80766       -2.99465
C          5.96847        2.27862       -3.79750
H          6.89629        1.78416       -3.47095
H          5.83290        2.07954       -4.86947
H          6.12069        3.36317       -3.67342
C          0.88132        0.78335        2.22184
H          0.77962       -0.29610        2.34477
C          1.25422        2.71090        0.82636
H          1.46152        3.15168       -0.15234
C          0.71168        1.62117        3.32206
H          0.48969        1.17786        4.29647
C          1.08744        3.53895        1.93082
H          1.17590        4.62224        1.80677
C          0.80390        3.01134        3.19837
C          0.57230        3.91594        4.37223
H          1.26944        4.76696        4.37010
H         -0.44867        4.33256        4.34741
H          0.68589        3.37955        5.32470
