94
Cat52.ts34.5.log	Energy: -1495997.5617455
C          0.37963       -2.80241        2.29840
H          0.45971       -3.86192        2.04088
H          1.21294       -2.42638        2.90022
C         -0.92430       -2.26529        2.53409
H         -1.80170       -2.89962        2.37342
H         -1.06065       -1.57565        3.37619
H         -0.91480       -0.88591        1.72121
Rh        -0.12598       -1.68698        0.54715
C          2.04128        1.14334        1.63433
C          3.22838       -1.40755        0.98949
C          2.27629        0.42419       -1.17140
C         -1.41123       -1.31692       -2.65484
C         -3.39735       -1.84115       -0.58167
C         -2.26211        0.86465       -1.08571
P         -1.77751       -0.92137       -0.88038
P          1.79194       -0.30051        0.50179
C          0.41378       -3.06173       -0.62245
O          0.80727       -3.88262       -1.33396
H          1.40214        1.95407        1.25197
C          1.67665        0.83065        3.07571
H          2.33702        0.06647        3.51539
H          0.64502        0.45204        3.14943
H          3.07579        1.51034        1.53977
H          1.75598        1.72964        3.70597
H          3.12212       -1.49301        2.08197
H          2.96437       -2.39488        0.59101
C          4.62621       -1.02242        0.63106
C          5.33291       -0.11399        1.42958
H          4.85574        0.28162        2.32983
C          5.25812       -1.57012       -0.50779
C          4.58598       -2.61249       -1.35695
H          3.59505       -2.29972       -1.71976
H          4.42414       -3.54505       -0.79176
H          5.20021       -2.85874       -2.23374
C          6.62364        0.29113        1.10451
H          7.14808        1.00819        1.74015
C          6.55712       -1.15247       -0.82035
H          7.04659       -1.57191       -1.70366
C          7.23746       -0.22458       -0.03429
H          8.24943        0.08432       -0.30641
H          2.90629       -0.33903       -1.65035
H          1.33652        0.45080       -1.73977
C          2.96410        1.76014       -1.20229
C          4.36156        1.83127       -1.17104
H          4.93964        0.90715       -1.15875
C          2.22487        2.96197       -1.25970
C          0.72888        2.95832       -1.37137
H          0.24489        2.41362       -0.54770
H          0.40220        2.48159       -2.31093
H          0.32727        3.98065       -1.36318
C          5.02969        3.05194       -1.15648
H          6.12165        3.06830       -1.12532
C          2.91091        4.18107       -1.24263
H          2.33348        5.10894       -1.28329
C          4.30083        4.23728       -1.18216
H          4.80967        5.20413       -1.16695
H         -1.26511       -2.40875       -2.67203
C         -2.38777       -0.88651       -3.73560
H         -2.47951        0.20711       -3.80489
H         -3.39514       -1.29330       -3.56537
H         -0.41012       -0.89067       -2.83578
H         -2.05288       -1.24799       -4.72014
H         -3.44771       -2.58814       -1.38906
H         -3.21084       -2.40383        0.34223
C         -4.69649       -1.09690       -0.48681
C         -5.54985       -1.01732       -1.59458
H         -5.24573       -1.48826       -2.53302
C         -5.10701       -0.51712        0.73323
C         -4.26071       -0.61945        1.96662
H         -3.21766       -0.33037        1.77740
H         -4.24692       -1.65291        2.35224
H         -4.64490        0.03214        2.76273
C         -6.78593       -0.37953       -1.52194
H         -7.43301       -0.33937       -2.40116
C         -6.34797        0.12610        0.78887
H         -6.66067        0.57911        1.73346
C         -7.18693        0.19851       -0.32035
H         -8.15188        0.70519       -0.24459
H         -1.41252        1.28825       -1.64789
H         -3.12320        0.87874       -1.76539
C         -2.54141        1.71323        0.12486
C         -1.63942        1.73967        1.19458
H         -0.75600        1.10150        1.14242
C         -3.68515        2.53840        0.17616
C         -4.63909        2.64090       -0.97775
H         -5.05311        1.66305       -1.26212
H         -4.14263        3.06013       -1.86851
H         -5.48435        3.29641       -0.72846
C         -1.86783        2.51769        2.32594
H         -1.14672        2.50869        3.14700
C         -3.90625        3.30606        1.32555
H         -4.79896        3.93610        1.36979
C         -3.01875        3.29677        2.39892
H         -3.22129        3.90835        3.28151
