96
Cat542.ts34.5.log	Energy: -1996165.6328844
C         -1.63967        1.67477       -3.71073
H         -1.53083        1.15778       -4.66713
H         -2.66939        1.86856       -3.39851
C         -0.60776        2.55580       -3.29775
H          0.30566        2.64565       -3.89152
H         -0.88196        3.47822       -2.77381
H         -0.28032        2.11121       -1.73962
Rh        -0.51189        0.58727       -2.22289
O         -2.06649        0.60973        0.88085
O         -3.66040        0.90027       -1.11112
O         -2.63729       -1.33349       -0.53417
O          1.56064       -1.42087       -0.60819
O          2.81893        0.43157       -1.79126
O          1.46555        0.96243        0.32878
P          1.35309        0.14908       -1.08640
P         -2.18759        0.23137       -0.74113
C         -0.46455       -0.98681       -3.29964
O         -0.46747       -1.94232       -3.93341
C         -1.36372        1.67202        1.37533
C         -1.37318        2.92331        0.75783
H         -1.97402        3.08426       -0.13808
C         -0.63614        1.47491        2.54946
H         -0.64706        0.49030        3.01834
C         -0.62053        3.96643        1.29494
H         -0.60537        4.95292        0.82827
C          0.11099        2.51447        3.08986
H          0.70903        2.37615        3.99175
C          0.12386        3.74637        2.44553
F          0.86193        4.73779        2.94491
C         -4.86287        0.48640       -0.57597
C         -5.45108       -0.68183       -1.05888
H         -4.93630       -1.24567       -1.83726
C         -5.48012        1.26294        0.41543
C         -4.86038        2.53476        0.90568
H         -3.99297        2.33714        1.55343
H         -4.50092        3.14977        0.06761
H         -5.58465        3.12480        1.48337
C         -6.66195       -1.11792       -0.53066
H         -7.11442       -2.03992       -0.90212
C         -6.70161        0.80377        0.92238
H         -7.20194        1.39635        1.69324
C         -7.28737       -0.37550        0.46877
H         -8.23809       -0.70918        0.89036
C         -2.68539       -2.14848        0.56970
C         -3.45066       -1.82453        1.68811
H         -4.02021       -0.89526        1.69927
C         -1.95884       -3.34653        0.49088
C         -1.15606       -3.66142       -0.73279
H         -1.78503       -3.64945       -1.63585
H         -0.36498       -2.91330       -0.89336
H         -0.68196       -4.64823       -0.64773
C         -3.47619       -2.69757        2.77358
H         -4.07320       -2.44448        3.65272
C         -2.00938       -4.20395        1.59344
H         -1.44400       -5.13880        1.55534
C         -2.75170       -3.88700        2.72995
H         -2.76954       -4.57447        3.57868
C          1.82120       -1.88791        0.65638
C          0.82462       -1.84640        1.63085
H         -0.15000       -1.41963        1.39423
C          3.06832       -2.44440        0.93558
H          3.83420       -2.46616        0.15891
C          1.07759       -2.35318        2.90221
H          0.30804       -2.34384        3.67596
C          3.32410       -2.95181        2.20690
H          4.29186       -3.38983        2.45682
C          2.32763       -2.89693        3.17536
F          2.57475       -3.38377        4.39136
C          3.96793       -0.32212       -1.64983
C          4.96153        0.10343       -0.77154
H          4.81043        1.01601       -0.19494
C          4.12160       -1.47278       -2.43868
C          3.05417       -1.89892       -3.39706
H          2.22402       -2.38985       -2.86572
H          2.62752       -1.03487       -3.92739
H          3.44865       -2.60800       -4.13715
C          6.12703       -0.64625       -0.63479
H          6.90142       -0.31523        0.06057
C          5.30316       -2.20537       -2.27886
H          5.44330       -3.10794       -2.87977
C          6.29499       -1.80966       -1.38284
H          7.20488       -2.40519       -1.27981
C          2.53017        1.55051        0.96927
C          3.07213        0.92748        2.09013
H          2.67230       -0.03478        2.40792
C          2.98340        2.80161        0.52551
C          2.36985        3.46302       -0.66843
H          1.27239        3.42661       -0.60724
H          2.68462        4.51265       -0.74041
H          2.66059        2.94904       -1.59833
C          4.11254        1.54080        2.78202
H          4.54162        1.04901        3.65782
C          4.02791        3.39442        1.24302
H          4.39640        4.37086        0.91791
C          4.59675        2.77558        2.35455
H          5.41119        3.26512        2.89291
