74
Cat50.ts34.5.log	Energy: -2640826.4183766
C          1.50372        1.51738        3.63769
H          0.91913        1.54414        4.56061
H          2.50489        1.09198        3.75267
C          1.30676        2.55418        2.68170
H          0.52284        3.29940        2.83841
H          2.17555        2.95420        2.14624
H          1.18943        1.74487        1.26158
Rh         0.29058        0.67087        2.06700
C          3.31044       -1.25981        2.25122
O          1.29098       -2.57191        1.28532
O          2.25560       -0.67506       -0.20186
C         -1.06154       -0.19062       -1.10565
O         -2.73660        0.82848        0.81764
O         -1.19075        2.40970       -0.37938
P         -1.15258        0.89986        0.36353
P          1.73513       -0.94285        1.37701
C         -1.04793        0.08872        3.29733
O         -1.84858       -0.27709        4.03422
H          3.80529       -0.27614        2.31528
C          3.07438       -1.85696        3.63110
H          2.65641       -2.87012        3.54759
H          2.36505       -1.25029        4.21516
H          3.95725       -1.90681        1.63957
H          4.01611       -1.91889        4.19594
C          0.04602       -2.96137        0.88495
C         -0.14026       -3.44301       -0.41221
H          0.70820       -3.48109       -1.09778
C         -1.03079       -2.90302        1.77049
H         -0.86960       -2.54436        2.78648
C         -1.40332       -3.85250       -0.83071
H         -1.56176       -4.22398       -1.84420
C         -2.29732       -3.30279        1.35530
H         -3.14413       -3.25361        2.04185
C         -2.47847       -3.76850        0.05337
Cl        -4.06311       -4.23989       -0.47416
C          3.26489       -1.26874       -0.90194
C          3.54354       -2.63824       -0.84591
H          2.96162       -3.28346       -0.18788
C          4.01492       -0.44327       -1.74384
H          3.78547        0.62339       -1.77207
C          4.56861       -3.16955       -1.62552
H          4.79363       -4.23656       -1.58547
C          5.03250       -0.97378       -2.52794
H          5.61864       -0.33213       -3.18768
C          5.30828       -2.33967       -2.46501
Cl         6.57741       -3.00672       -3.43653
H         -1.57579       -1.11787       -0.80437
C         -1.56429        0.32703       -2.44423
H         -1.05811        1.26049       -2.72968
H         -2.64465        0.52163       -2.43854
H          0.00624       -0.45841       -1.16281
H         -1.36213       -0.41907       -3.22780
C         -3.79424        0.74143       -0.05090
C         -4.36762       -0.50462       -0.29628
H         -3.96284       -1.38830        0.19727
C         -4.30460        1.88808       -0.65919
H         -3.83946        2.85200       -0.45125
C         -5.43885       -0.61601       -1.17684
H         -5.88143       -1.59123       -1.38402
C         -5.37927        1.78141       -1.53655
H         -5.78796        2.66693       -2.02576
C         -5.93710        0.52905       -1.79703
Cl        -7.26780        0.39756       -2.89868
C         -0.10048        3.18492       -0.59890
C         -0.20847        4.55392       -0.34273
H         -1.15555        4.94384        0.03407
C          1.10754        2.66039       -1.07137
H          1.20903        1.59102       -1.26532
C          0.87555        5.39686       -0.55946
H          0.79649        6.46692       -0.36135
C          2.19711        3.50222       -1.28000
H          3.14473        3.10240       -1.64503
C          2.07983        4.86620       -1.02304
Cl         3.43881        5.90997       -1.28118
