60
Cat59.ts34.5.log	Energy: -965790.0347533
C         -2.96993       -2.47271       -0.44185
H         -2.81834       -3.55527       -0.45765
H         -3.72732       -2.13849        0.27415
C         -2.83420       -1.75987       -1.67450
H         -2.50496       -2.29394       -2.57048
H         -3.55810       -0.96810       -1.89939
H         -1.92179       -0.47883       -1.27968
Rh        -1.07088       -1.50148       -0.33470
C         -1.15978        1.62454        1.49693
C         -3.14099       -0.24415        2.32127
C         -0.43679       -0.63908        3.03384
C          2.18894       -0.27563        0.00020
C          1.66031       -1.54164       -2.53140
C          0.65123        1.07051       -2.03190
P          0.82906       -0.56525       -1.21691
P         -1.46109       -0.20223        1.56926
C         -0.12916       -3.05157        0.17304
O          0.49263       -3.96559        0.50993
H         -1.30232        2.06513        2.50029
H         -0.09027        1.74643        1.24911
C         -2.01414        2.34052        0.46226
H         -1.96639        1.77958       -0.48809
H         -3.07383        2.31172        0.77104
C         -1.60171        3.78651        0.22544
H         -0.53948        3.81664       -0.08212
H         -1.64863        4.34632        1.17731
C         -2.44694        4.49577       -0.82315
H         -2.39524        3.92860       -1.76954
H         -3.50700        4.46273       -0.51498
C         -2.02836        5.93684       -1.06506
H         -2.65693        6.42120       -1.82759
H         -0.98308        5.99678       -1.40904
H         -2.10417        6.53513       -0.14274
H         -3.88895        0.07198        1.57952
H         -3.37363       -1.27942        2.61076
H         -3.21438        0.40476        3.20892
H         -0.66549       -0.01453        3.91280
H         -0.61031       -1.69668        3.28011
H          0.62670       -0.52957        2.77659
H          1.75668        0.39612        0.76182
H          2.33074       -1.24365        0.51086
C          3.51875        0.27198       -0.49518
H          3.95793       -0.41884       -1.23509
H          3.36173        1.22664       -1.02687
C          4.51988        0.49296        0.63189
H          4.67811       -0.45949        1.16963
H          4.08402        1.18515        1.37554
C          5.86144        1.03737        0.16145
H          6.29262        0.34298       -0.58137
H          5.69704        1.98665       -0.37898
C          6.85327        1.25747        1.29222
H          7.81211        1.65063        0.92191
H          7.06360        0.31747        1.82732
H          6.46298        1.97507        2.03186
H          1.95792       -2.51343       -2.11082
H          0.92909       -1.73363       -3.32943
H          2.54096       -1.03540       -2.95648
H         -0.11086        0.98374       -2.81955
H          0.29490        1.80700       -1.29788
H          1.59241        1.42571       -2.47796
