86
Cat502.ts34.5.log	Energy: -1633618.2096443
C         -2.31423        1.00105       -2.60488
H         -2.09886        0.74449       -3.64537
H         -3.30801        0.70271       -2.25862
C         -1.70637        2.16002       -2.05149
H         -0.98926        2.73550       -2.64365
H         -2.28502        2.76906       -1.34839
H         -1.06376        1.65502       -0.59136
Rh        -0.69175        0.28806       -1.37446
O         -2.81824       -0.17666        1.34163
C         -3.38189       -1.90631       -0.63635
C         -1.18452       -2.22567        1.10901
O          2.07846       -1.01211       -0.23019
C          2.56329        1.57215       -1.01245
C          1.24009        0.98445        1.44625
P          1.28611        0.46738       -0.30677
P         -1.99049       -0.94430        0.08220
C          0.04062       -0.79320       -2.74932
O          0.51281       -1.45398       -3.56657
C         -3.12195        1.15061        1.24165
C         -4.23044        1.57402        0.50888
H         -4.85598        0.83138        0.00881
C         -2.30912        2.08654        1.87925
H         -1.43912        1.73779        2.43690
C         -4.51745        2.93452        0.41772
H         -5.38491        3.25848       -0.16412
C         -2.60689        3.44168        1.77685
H         -1.95414        4.16672        2.27143
C         -3.71334        3.89351        1.04551
C         -4.04133        5.35644        0.96226
H         -4.59662        5.59394        0.04331
H         -3.13187        5.97489        0.98052
H         -4.66733        5.67256        1.81372
C         -3.28044       -2.37180       -1.95050
C         -4.53271       -2.19103        0.10868
C         -5.45331       -3.40984       -1.76421
C         -5.56477       -2.93595       -0.45626
C         -4.30906       -3.12907       -2.50887
H         -2.39175       -2.12546       -2.53713
H         -4.21985       -3.49154       -3.53583
H         -6.26400       -3.99510       -2.20511
H         -6.46243       -3.15107        0.12895
H         -4.61500       -1.81759        1.13202
C         -1.49996       -2.40762        2.46040
C         -0.17241       -2.99433        0.52477
C          0.21426       -4.10492        2.63433
C          0.52145       -3.93301        1.28450
C         -0.79861       -3.34328        3.21846
H         -2.27521       -1.79035        2.91722
H         -1.04145       -3.47503        4.27607
H          0.76861       -4.83127        3.23376
H          1.32122       -4.51686        0.82321
H          0.10297       -2.82243       -0.51816
C          3.42377       -1.18051       -0.04701
C          3.95478       -1.36669        1.22814
H          3.29181       -1.36013        2.09350
C          4.26609       -1.19771       -1.16021
H          3.83308       -1.05053       -2.15148
C          5.32776       -1.55318        1.38122
H          5.73594       -1.69506        2.38586
C          5.63274       -1.38416       -0.99066
H          6.28318       -1.38704       -1.86982
C          6.19207       -1.56209        0.28185
C          7.66749       -1.78384        0.45013
H          7.98344       -1.62237        1.49060
H          8.25214       -1.10790       -0.19219
H          7.94876       -2.81427        0.17574
C          2.39243        2.02481       -2.32437
C          3.72670        1.92077       -0.31021
C          4.52552        3.14895       -2.23022
C          4.70203        2.70446       -0.91900
C          3.37036        2.81041       -2.93246
H          1.47713        1.74585       -2.85566
H          3.22824        3.15991       -3.95780
H          5.29350        3.76454       -2.70535
H          5.60862        2.96565       -0.36818
H          3.87445        1.57103        0.71384
C          1.28400        2.34025        1.79402
C          1.00145        0.02893        2.44063
C          0.87366        1.77415        4.10789
C          0.81972        0.42347        3.76452
C          1.10646        2.73120        3.11962
H          1.45424        3.09617        1.02334
H          1.14747        3.79123        3.38185
H          0.72964        2.08265        5.14604
H          0.62756       -0.33364        4.52835
H          0.94476       -1.02811        2.17487
