92
Cat537.ts34.5.log	Energy: -1807407.1809039
C          1.85741       -3.80360       -0.01316
H          1.59699       -4.52477       -0.79202
H          2.90836       -3.49875        0.00756
C          1.11976       -3.82468        1.19856
H          0.27397       -4.50748        1.31426
H          1.65044       -3.62186        2.13503
H          0.65234       -2.25193        1.45235
Rh         0.47067       -2.15449       -0.15361
O          1.67906        0.70682        1.15582
C          3.70302       -0.86767        0.30064
C          2.14752        0.69023       -1.53278
O         -1.45671        0.42332       -0.33928
C         -3.09547       -1.77679       -0.36382
C         -1.89502       -0.81788        2.05897
P         -1.50873       -1.15418        0.30390
P          1.97735       -0.41699       -0.08855
C          0.12270       -2.47098       -1.98698
O         -0.04628       -2.60662       -3.11790
C          1.93187        2.04536        1.04741
C          3.12669        2.58496        1.52527
H          3.87725        1.92337        1.96011
C          0.96342        2.87548        0.47712
H          0.04366        2.42550        0.10157
C          3.35712        3.95587        1.42789
H          4.28291        4.40492        1.79214
C          1.19135        4.24333        0.37458
H          0.45284        4.90982       -0.07433
C          2.38857        4.76676        0.84977
F          2.61184        6.07858        0.75081
C          4.14008       -0.88835        1.62945
H          3.48471       -0.51134        2.41805
C          4.53231       -1.38710       -0.70171
H          4.18223       -1.39601       -1.73872
C          5.40183       -1.39514        1.93499
H          5.74450       -1.40850        2.97279
C          5.80091       -1.89501       -0.40799
C          6.69499       -2.40942       -1.49861
H          7.43057       -1.64423       -1.79780
H          7.26128       -3.29374       -1.17096
H          6.12047       -2.68181       -2.39514
C          6.22545       -1.89057        0.92755
H          7.21200       -2.28954        1.17926
C          3.29065        1.46791       -1.76754
H          4.16783        1.36529       -1.12585
C          1.03117        0.84258       -2.35735
H          0.13782        0.25139       -2.14474
C          3.29633        2.37944       -2.81700
H          4.18380        2.98928       -3.00236
C          1.02117        1.76235       -3.41194
C         -0.20792        1.92295       -4.25836
H         -0.58073        0.94628       -4.60342
H         -1.02053        2.39495       -3.68195
H         -0.01476        2.54810       -5.14136
C          2.17125        2.52574       -3.62982
H          2.18757        3.24915       -4.44995
C         -2.49282        1.30038       -0.44261
C         -2.83049        2.14033        0.62202
H         -2.27536        2.06749        1.55799
C         -3.19430        1.38394       -1.64902
H         -2.91874        0.71445       -2.46554
C         -3.87895        3.04773        0.48584
H         -4.16402        3.71224        1.30347
C         -4.23901        2.29217       -1.79040
H         -4.80249        2.37258       -2.72179
C         -4.57285        3.11016       -0.71652
F         -5.57897        3.97592       -0.84570
C         -3.08916       -2.91854       -1.17233
H         -2.14837       -3.44894       -1.33576
C         -4.30936       -1.11623       -0.12596
H         -4.33691       -0.24146        0.52719
C         -4.27432       -3.37172       -1.74528
H         -4.26705       -4.26621       -2.37248
C         -5.50382       -1.54999       -0.70876
C         -6.77350       -0.78434       -0.47594
H         -6.94093       -0.60301        0.59684
H         -6.72627        0.20317       -0.96379
H         -7.64852       -1.31666       -0.87408
C         -5.46769       -2.68780       -1.52253
H         -6.39263       -3.04600       -1.98328
C         -2.95377       -1.41589        2.74665
H         -3.64012       -2.08930        2.23002
C         -1.00771        0.01917        2.75126
H         -0.14993        0.44177        2.22116
C         -3.12703       -1.15303        4.10657
H         -3.95339       -1.62236        4.64617
C         -1.18044        0.29959        4.10679
C         -0.23346        1.21676        4.82573
H          0.16733        0.74442        5.73613
H          0.61291        1.49784        4.18357
H         -0.73934        2.14421        5.13995
C         -2.25798       -0.29890        4.77688
H         -2.40843       -0.09881        5.84173
