106
Cat554.ts34.5.log	Energy: -1547118.1072775
C         -0.76149       -1.18164        3.45567
H         -0.71179       -0.46703        4.28114
H         -1.71144       -1.72099        3.38940
C          0.43896       -1.86044        3.08094
H          1.38288       -1.58889        3.56166
H          0.38479       -2.92781        2.83842
H          0.43974       -1.75849        1.46328
Rh        -0.08061       -0.23070        1.65928
O         -2.04620       -2.04446       -0.59873
C         -3.54038       -0.92038        1.23349
C         -2.41199        0.60111       -0.92084
O          1.31592        0.83101       -1.33462
C          2.91185        1.42815        0.80160
C          2.58083       -1.21120       -0.28301
P          1.61213        0.25249        0.22968
P         -1.95271       -0.63864        0.35664
C         -0.15298        1.50162        2.39950
O         -0.17782        2.57455        2.82510
C         -0.96832       -2.63212       -1.17752
C         -0.40081       -2.10007       -2.33628
H         -0.80905       -1.17395       -2.74333
C         -0.48060       -3.82663       -0.61857
C         -1.13172       -4.38693        0.60777
H         -0.56811       -5.24269        1.00404
H         -1.21668       -3.62393        1.39558
H         -2.15845       -4.72116        0.38759
C          0.65212       -2.75956       -2.96617
H          1.08882       -2.34062       -3.87585
C          0.57908       -4.46826       -1.26549
H          0.96621       -5.40044       -0.84482
C          1.14228       -3.94950       -2.43179
H          1.96206       -4.47817       -2.92317
H         -3.35448       -1.78631        1.89091
H         -3.66734       -0.05693        1.90902
C         -4.77806       -1.16068        0.38273
H         -5.00548       -0.25979       -0.21272
H         -4.56476       -1.96290       -0.34293
C         -6.00218       -1.52902        1.21019
H         -6.19959       -0.73200        1.95043
H         -5.78298       -2.43678        1.80182
C         -7.25250       -1.76239        0.37363
H         -7.46855       -0.85244       -0.21403
H         -7.04610       -2.55334       -0.36899
C         -8.47155       -2.13944        1.19972
H         -9.35799       -2.30061        0.56764
H         -8.72095       -1.35012        1.92719
H         -8.29667       -3.06629        1.76961
H         -1.51334        0.75382       -1.54013
H         -3.18356        0.15229       -1.56781
C         -2.87152        1.93506       -0.35354
H         -3.76254        1.79165        0.28315
H         -2.08698        2.34069        0.30696
C         -3.19034        2.94601       -1.44534
H         -3.99743        2.54840       -2.08776
H         -2.30793        3.05770       -2.09853
C         -3.59389        4.31156       -0.91046
H         -4.47870        4.20381       -0.25778
H         -2.78745        4.69131       -0.25904
C         -3.88253        5.32220       -2.00823
H         -4.16420        6.30380       -1.59748
H         -4.70672        4.98378       -2.65691
H         -2.99915        5.46719       -2.65049
C          0.86574        2.05713       -1.69595
C          0.48378        3.04934       -0.78991
H          0.50009        2.85346        0.28080
C          0.80373        2.29626       -3.08408
C          1.21699        1.21999       -4.03971
H          2.27927        0.95935       -3.90634
H          0.65007        0.29286       -3.86657
H          1.06554        1.53553       -5.08082
C          0.07363        4.29877       -1.25386
H         -0.21007        5.06787       -0.53197
C          0.37768        3.55180       -3.51844
H          0.33363        3.74435       -4.59403
C          0.02154        4.55803       -2.61927
H         -0.29687        5.53585       -2.98643
H          3.58388        1.66143       -0.04061
H          2.41041        2.36752        1.07881
C          3.67823        0.88898        2.00240
H          2.95353        0.51584        2.74851
H          4.28608        0.01777        1.70175
C          4.58127        1.93019        2.64865
H          3.96789        2.79230        2.96722
H          5.28633        2.32567        1.89491
C          5.36149        1.39621        3.84160
H          4.65061        0.99623        4.58622
H          5.97132        0.53366        3.51846
C          6.25475        2.43862        4.49431
H          6.80487        2.02349        5.35231
H          5.66636        3.29567        4.85950
H          6.99753        2.83121        3.78120
H          2.94058       -1.65055        0.66325
H          1.84706       -1.92688       -0.68317
C          3.71638       -0.99099       -1.26792
H          3.30147       -0.56883       -2.19741
H          4.42484       -0.23854       -0.87968
C          4.47610       -2.27275       -1.57972
H          3.76151       -3.03825       -1.92825
H          4.91454       -2.67580       -0.64830
C          5.57314       -2.09042       -2.61866
H          5.12726       -1.68387       -3.54391
H          6.28259       -1.31979       -2.26788
C          6.32485       -3.37351       -2.93366
H          7.10846       -3.21270       -3.68953
H          5.64432       -4.14957       -3.32002
H          6.81026       -3.78345       -2.03328
