86
Cat500.ts34.5.log	Energy: -1538681.5133940
C          0.72955       -1.25081        3.54585
H          1.35390       -0.67578        4.23472
H         -0.33781       -1.25842        3.78488
C          1.29570       -2.39664        2.91894
H          2.35526       -2.62656        3.05649
H          0.66783       -3.28442        2.78964
H          0.82627       -2.21619        1.32496
Rh         1.17662       -0.65170        1.52820
O         -1.31905       -0.39237       -0.61980
O         -2.09531       -1.21989        1.67291
O         -1.74802        1.20920        1.33447
O          1.68190        0.15501       -1.71550
O          3.79787       -0.54561       -0.47230
O          2.15656       -2.20863       -1.28245
P          2.20405       -0.81411       -0.45120
P         -0.99515       -0.21591        1.01157
C          2.21724        0.82766        2.11870
O          2.84324        1.71891        2.48747
C         -2.55884       -0.42429       -1.19178
C         -3.06365       -1.64446       -1.64152
H         -2.47156       -2.54817       -1.48642
C         -3.30297        0.74259       -1.37368
H         -2.89886        1.68851       -1.01511
C         -4.30678       -1.69381       -2.26630
H         -4.69280       -2.65691       -2.61219
C         -4.54725        0.67534       -1.99428
H         -5.12531        1.59444       -2.12629
C         -5.07386       -0.53810       -2.45379
C         -6.40093       -0.59212       -3.15397
H         -6.88549       -1.57084       -3.02494
H         -6.28518       -0.42526       -4.23820
H         -7.08742        0.18039       -2.77765
C         -3.44880       -0.90291        2.04474
H         -3.80008       -0.06658        1.42044
C         -3.47232       -0.48500        3.50112
H         -2.83939        0.39906        3.65647
H         -3.10130       -1.30182        4.13986
H         -4.49726       -0.23750        3.81654
C         -4.28801       -2.13060        1.76587
H         -4.25211       -2.38764        0.69855
H         -3.91816       -2.98802        2.34896
H         -5.33675       -1.94669        2.04335
C         -0.99974        2.40908        1.58165
H         -0.04593        2.34715        1.02913
C         -0.71506        2.53019        3.06525
H         -0.18552        1.63769        3.42702
H         -1.65353        2.63807        3.63154
H         -0.08295        3.40798        3.26619
C         -1.81680        3.56500        1.04745
H         -1.97143        3.46662       -0.03530
H         -2.79750        3.60381        1.54652
H         -1.29360        4.51524        1.22847
C          1.34709        1.46788       -1.58016
C          0.19998        1.92231       -2.23436
H         -0.40753        1.20609       -2.78900
C          2.12303        2.36389       -0.84425
H          3.02302        2.01436       -0.33677
C         -0.15138        3.26465       -2.16149
H         -1.04964        3.60677       -2.68423
C          1.74408        3.70360       -0.76476
H          2.35628        4.39061       -0.17411
C          0.60923        4.18339       -1.42408
C          0.22397        5.63317       -1.36655
H         -0.86337        5.75737       -1.24887
H          0.51143        6.15970       -2.29191
H          0.71699        6.14769       -0.52931
C          4.59053       -0.67880       -1.67031
H          3.90654       -0.73925       -2.53278
C          5.39214       -1.95941       -1.57086
H          4.71586       -2.81943       -1.47449
H          6.05330       -1.92932       -0.69127
H          6.01236       -2.09689       -2.46963
C          5.44415        0.56487       -1.79166
H          4.81682        1.46187       -1.89267
H          6.08002        0.68096       -0.90064
H          6.09363        0.49840       -2.67731
C          0.91351       -2.87796       -1.54455
H          0.13893       -2.43498       -0.89525
C          1.09901       -4.33310       -1.17459
H          1.36785       -4.42712       -0.11236
H          1.90364       -4.78400       -1.77589
H          0.17235       -4.89914       -1.35256
C          0.53129       -2.65377       -2.99270
H          0.42879       -1.57890       -3.19270
H          1.30230       -3.06477       -3.66276
H         -0.42664       -3.14545       -3.21985
