102
Cat569.ts34.5.log	Energy: -1920981.5544609
C         -0.78831       -3.74462       -1.57794
H         -1.03968       -4.00378       -2.60909
H          0.12004       -4.21802       -1.19579
C         -1.83548       -3.42669       -0.67830
H         -2.87021       -3.36954       -1.02663
H         -1.73790       -3.72516        0.37170
H         -1.35231       -1.99489        0.03822
Rh        -0.79307       -1.58227       -1.41566
O          1.73116       -2.06748        0.84333
O          2.57063       -1.75696       -1.47222
O          1.64938        0.28261       -0.18385
O         -1.59334        1.57143       -2.01441
O         -3.43379        0.42871       -0.78311
O         -1.28181        0.95326        0.49220
P         -1.77487        0.34713       -0.95576
P          1.27912       -1.28263       -0.57391
C         -0.72260       -1.33947       -3.31430
O         -0.66255       -1.18257       -4.44756
C          0.82426       -2.45582        1.78860
C         -0.09457       -1.55524        2.32890
H         -0.11868       -0.52469        1.97042
C          0.86114       -3.79929        2.19652
C          1.85954       -4.73619        1.59006
H          1.81277       -4.71286        0.49055
H          2.88854       -4.44863        1.85952
H          1.69149       -5.76772        1.92761
C         -0.99699       -1.99111        3.29812
H         -1.71232       -1.28328        3.72385
C         -0.05549       -4.20688        3.16907
H         -0.04299       -5.24979        3.49742
C         -0.98053       -3.31835        3.71865
H         -1.68474       -3.66530        4.47820
C          3.88418       -1.37132       -1.33700
C          4.60963       -1.61852       -0.17170
H          4.12928       -2.13590        0.65832
C          4.48477       -0.72638       -2.41427
H          3.90150       -0.56325       -3.32250
C          5.91763       -1.15749       -0.07500
H          6.47185       -1.32964        0.85179
C          5.80039       -0.28363       -2.30426
H          6.26260        0.23232       -3.15048
C          6.53421       -0.47098       -1.12836
C          7.92432        0.07496       -0.97964
H          7.91512        1.01497       -0.40189
H          8.38135        0.29279       -1.95545
H          8.58082       -0.62757       -0.44460
C          2.71810        0.81218        0.49903
C          3.58316        1.66199       -0.18892
H          3.40786        1.84777       -1.24918
C          2.90723        0.57402        1.85881
H          2.21576       -0.06837        2.40359
C          4.66578        2.22618        0.47327
H          5.34809        2.87612       -0.08171
C          3.99876        1.14940        2.50688
H          4.14696        0.94850        3.57154
C          4.90508        1.97060        1.82988
C          6.11067        2.53961        2.52006
H          6.31692        3.56937        2.19165
H          7.01100        1.94178        2.29825
H          5.98494        2.54894        3.61219
C         -1.96207        2.89210       -1.84380
C         -3.29379        3.26597       -1.99466
H         -4.03182        2.49992       -2.23335
C         -0.95223        3.81926       -1.55352
C          0.47929        3.38889       -1.47273
H          1.09634        4.16090       -0.99410
H          0.59680        2.45169       -0.91278
H          0.88282        3.20082       -2.48174
C         -3.65333        4.59753       -1.80495
H         -4.69821        4.89780       -1.91192
C         -1.34641        5.14589       -1.35730
H         -0.58250        5.88628       -1.10570
C         -2.67926        5.53672       -1.47275
H         -2.95547        6.58103       -1.31013
C         -4.10480       -0.63395       -0.23112
C         -5.03853       -1.31429       -1.00889
H         -5.21451       -0.98290       -2.03376
C         -3.84279       -1.05075        1.07322
H         -3.09931       -0.52045        1.66972
C         -5.70815       -2.41174       -0.47507
H         -6.43556       -2.94483       -1.09356
C         -4.51022       -2.15894        1.58710
H         -4.27897       -2.49234        2.60245
C         -5.45435       -2.85936        0.82798
C         -6.18785       -4.03760        1.40006
H         -6.47979       -4.75068        0.61551
H         -7.11106       -3.71971        1.91316
H         -5.57308       -4.57416        2.13734
C         -1.50472        2.14490        1.14248
C         -2.76887        2.72298        1.25396
H         -3.63133        2.23976        0.79641
C         -0.39946        2.74646        1.73909
H          0.57798        2.26821        1.65582
C         -2.90104        3.93654        1.91960
H         -3.89082        4.39697        1.98223
C         -0.55598        3.95627        2.40972
H          0.31935        4.42681        2.86583
C         -1.80271        4.58299        2.49967
C         -1.96247        5.91716        3.16815
H         -2.85255        5.94219        3.81514
H         -2.08341        6.71884        2.42026
H         -1.08711        6.16833        3.78380
