98
Cat564.ts34.5.log	Energy: -1732223.9234574
C         -1.53659       -3.27172       -1.32621
H         -1.31837       -4.18663       -0.76924
H         -2.60155       -3.05250       -1.44722
C         -0.62353       -2.86504       -2.33627
H          0.30980       -3.41582       -2.48668
H         -1.02708       -2.43753       -3.26076
H         -0.33835       -1.28482       -2.03954
Rh        -0.38994       -1.66545       -0.46072
O         -2.51609        1.11664       -1.04922
C         -3.78932       -0.99693       -0.26312
C         -2.33755        0.50784        1.60094
O          1.85962       -0.14479        1.34008
C          3.07434       -1.58662       -0.69517
C          1.91060        0.96317       -1.19354
P          1.59960       -0.57817       -0.26510
P         -2.14773       -0.21617       -0.07264
C         -0.14692       -2.64018        1.13941
O         -0.02854       -3.24353        2.11283
C         -1.83300        2.28233       -1.15857
C         -0.84557        2.69231       -0.26045
H         -0.55645        2.04338        0.56547
C         -2.20199        3.10031       -2.24398
C         -3.25504        2.63000       -3.19911
H         -3.41087        3.35741       -4.00755
H         -2.98114        1.66189       -3.64826
H         -4.21650        2.47368       -2.68381
C         -0.23611        3.93473       -0.42173
H          0.53271        4.24921        0.28702
C         -1.57239        4.33791       -2.38005
H         -1.86007        4.98184       -3.21621
C         -0.59998        4.76580       -1.47595
H         -0.13045        5.74467       -1.59586
C         -4.64388       -0.72342       -1.33166
H         -4.37183        0.04715       -2.05405
C         -4.15258       -1.99156        0.65563
H         -3.48657       -2.22763        1.49094
C         -5.84288       -1.42493       -1.47008
H         -6.50262       -1.19562       -2.31185
C         -5.34884       -2.68059        0.51224
H         -5.61726       -3.44793        1.24411
C         -6.21866       -2.41121       -0.55573
C         -7.50713       -3.16670       -0.70072
H         -7.32623       -4.24951       -0.79390
H         -8.15429       -3.02356        0.17944
H         -8.06812       -2.84122       -1.58790
C         -3.43952        1.31741        1.90851
H         -4.19975        1.50716        1.14610
C         -1.36917        0.27715        2.57728
H         -0.48773       -0.31891        2.32871
C         -3.56349        1.87838        3.17181
H         -4.42500        2.51336        3.39796
C         -1.50875        0.83221        3.84961
H         -0.74454        0.63701        4.60719
C         -2.60259        1.64122        4.16777
C         -2.75958        2.23985        5.53438
H         -3.63386        1.81455        6.05353
H         -1.87545        2.05539        6.16022
H         -2.91730        3.32817        5.47714
C          3.00028        0.22951        1.99692
C          4.07834       -0.64489        2.14246
H          4.02668       -1.63885        1.69986
C          3.01059        1.49990        2.60257
C          1.82652        2.40701        2.47754
H          2.00382        3.36008        2.99405
H          1.60473        2.62021        1.42153
H          0.91997        1.94684        2.89832
C          5.20542       -0.24391        2.85674
H          6.04777       -0.93173        2.96057
C          4.15256        1.87133        3.31723
H          4.17504        2.85741        3.78956
C          5.24896        1.01896        3.44062
H          6.12931        1.33837        4.00279
C          3.01894       -2.96396       -0.43922
H          2.09378       -3.39093       -0.04350
C          4.24959       -1.06136       -1.24394
H          4.31925        0.00169       -1.47852
C          4.11820       -3.77875       -0.68127
H          4.05366       -4.84786       -0.45987
C          5.34365       -1.88517       -1.49619
H          6.25299       -1.45055       -1.92054
C          5.30371       -3.25438       -1.21420
C          6.47483       -4.14380       -1.50877
H          7.41343       -3.57375       -1.55662
H          6.58545       -4.92903       -0.74645
H          6.34651       -4.65015       -2.48013
C          2.89161        1.89307       -0.82588
H          3.51386        1.72568        0.05560
C          1.14531        1.21986       -2.33693
H          0.35341        0.52041       -2.61477
C          3.08960        3.04548       -1.58278
H          3.85322        3.76385       -1.27193
C          1.36188        2.36102       -3.09787
H          0.74127        2.54317       -3.97889
C          2.33296        3.29957       -2.73115
C          2.52126        4.55233       -3.53155
H          2.64050        4.32958       -4.60299
H          1.63796        5.20432       -3.43300
H          3.40109        5.12045       -3.19872
