110
Cat516.ts34.5.log	Energy: -1830826.7810482
C         -0.29881        0.81119       -4.03322
H         -0.35112        0.05299       -4.81855
H         -1.22393        1.38065       -3.90504
C          0.94567        1.46939       -3.80575
H          1.83445        1.15158       -4.35745
H          0.94185        2.54231       -3.58575
H          1.14821        1.42254       -2.12552
Rh         0.52782       -0.06253       -2.25175
O         -0.92288       -0.03922        0.67922
C         -1.44112        2.38999       -0.58500
C         -3.03318        0.11993       -1.15602
O          2.00113       -2.22728       -0.12182
C          3.78966       -0.75073       -1.38860
C          2.26234        0.21867        0.91412
P          2.08345       -0.64941       -0.70691
P         -1.24701        0.53331       -0.86713
C          0.57549       -1.78757       -3.03936
O          0.63267       -2.82940       -3.52966
C         -1.54919        0.21804        1.85810
C         -1.00033        1.14811        2.74216
H         -0.09426        1.69067        2.46210
C         -2.68843       -0.49771        2.22447
H         -3.06451       -1.26244        1.54433
C         -1.61842        1.38452        3.96923
H         -1.18433        2.12100        4.65087
C         -3.29974       -0.24315        3.44677
H         -4.19998       -0.80275        3.71754
C         -2.78306        0.70523        4.34117
C         -3.44521        0.95352        5.66558
H         -3.28894        0.10678        6.35423
H         -4.53279        1.08164        5.55377
H         -3.04609        1.85414        6.15291
H         -0.78475        2.59486        0.27509
H         -0.94837        2.84396       -1.45615
C         -2.80874        2.96803       -0.36751
C         -3.38687        2.94948        0.90905
H         -2.81193        2.55383        1.74767
C         -3.55532        3.49472       -1.44429
C         -2.99326        3.56782       -2.83479
H         -2.79946        2.56760       -3.25550
H         -2.03715        4.11423       -2.86643
H         -3.69049        4.07678       -3.51375
C         -4.68094        3.41116        1.12964
H         -5.10295        3.37723        2.13678
C         -4.85398        3.95742       -1.20392
H         -5.42972        4.36408       -2.04004
C         -5.42459        3.91321        0.06518
H         -6.44269        4.27778        0.22071
H         -3.61977        0.63738       -0.38661
H         -3.24920        0.65941       -2.09659
C         -3.45331       -1.31697       -1.27750
C         -2.74539       -2.19377       -2.10521
H         -1.87666       -1.81082       -2.64150
C         -4.60986       -1.78123       -0.61237
C         -5.50975       -0.85798        0.16250
H         -5.95709       -0.09668       -0.49722
H         -4.98454       -0.30852        0.95803
H         -6.33219       -1.41825        0.62847
C         -3.11889       -3.52680       -2.24370
H         -2.53923       -4.18760       -2.89256
C         -4.96101       -3.13068       -0.74781
H         -5.85109       -3.49596       -0.22769
C         -4.22500       -4.00440       -1.54485
H         -4.52770       -5.05063       -1.63253
C          0.94784       -2.66164        0.64806
C         -0.21064       -3.15246        0.05374
H         -0.28575       -3.18892       -1.03089
C          1.05321       -2.63607        2.04051
H          1.97495       -2.27835        2.50246
C         -1.27170       -3.57455        0.85043
H         -2.18463       -3.92996        0.36548
C         -0.01307       -3.06363        2.82459
H          0.07604       -3.02290        3.91385
C         -1.19923       -3.53084        2.24552
C         -2.35342       -3.97028        3.09868
H         -3.25882       -4.12293        2.49364
H         -2.58279       -3.22033        3.87185
H         -2.13439       -4.91829        3.61717
H          3.73293       -1.62408       -2.05994
H          3.87246        0.12832       -2.04055
C          4.94386       -0.86433       -0.43660
C          5.09377       -2.02645        0.33259
H          4.34850       -2.81831        0.23232
C          5.89363        0.17284       -0.31707
C          5.78909        1.43962       -1.11696
H          5.83255        1.24104       -2.20029
H          6.61281        2.12320       -0.87133
H          4.84677        1.97252       -0.91569
C          6.16257       -2.17748        1.21209
H          6.25950       -3.09311        1.80024
C          6.96454       -0.00170        0.56759
H          7.70429        0.79827        0.65936
C          7.10659       -1.15954        1.32782
H          7.95379       -1.26485        2.00973
H          1.24805        0.18617        1.34086
H          2.88319       -0.46394        1.50548
C          2.84006        1.60424        0.95752
C          2.34628        2.62365        0.13524
H          1.53059        2.39198       -0.55097
C          3.87527        1.90538        1.87138
C          4.39142        0.88397        2.84262
H          4.79089       -0.00585        2.33395
H          3.59499        0.54420        3.52483
H          5.20045        1.30340        3.45563
C          2.88184        3.90941        0.16223
H          2.47928        4.68108       -0.49830
C          4.40537        3.19998        1.88084
H          5.21340        3.42946        2.58085
C          3.92822        4.19704        1.03289
H          4.36636        5.19746        1.06350
