100
Cat525.ts34.5.log	Energy: -1622293.4735728
C          1.31351        2.72944       -2.37191
H          1.16547        3.79034       -2.15568
H          2.36026        2.42396       -2.46867
C          0.33825        2.05497       -3.16017
H         -0.56493        2.58547       -3.47370
H          0.68359        1.31399       -3.88925
H          0.01069        0.67929       -2.32283
Rh         0.13413        1.58479       -0.97962
O          2.64376       -0.47037       -1.68634
C          3.35009        1.23072        0.39707
C          1.70843       -1.09102        0.83765
O         -1.44412       -0.93285        0.41988
C         -2.90954        1.34548        0.79197
C         -2.85871       -0.01514       -1.76614
P         -1.76116        0.52983       -0.38770
P          1.93969        0.29547       -0.34393
C         -0.05578        2.97771        0.28033
O         -0.16174        3.77925        1.10357
C          3.89484       -1.00340       -1.71485
C          4.11822       -2.32406       -1.31399
H          3.27222       -2.92851       -0.98337
C          4.96345       -0.23339       -2.18362
H          4.77082        0.78601       -2.52306
C          5.40522       -2.85544       -1.33480
H          5.60304       -3.88170       -1.01998
C          6.25231       -0.75797       -2.20614
H          7.10138       -0.17033       -2.55994
C          6.45983       -2.06168       -1.77013
F          7.69409       -2.56593       -1.78407
H          3.76911        1.82631       -0.43223
H          2.86265        1.97078        1.05458
C          4.45049        0.49007        1.14888
H          4.03820        0.06089        2.07779
H          4.81846       -0.36420        0.56044
C          5.63159        1.38708        1.49197
H          5.28365        2.24801        2.09171
H          6.03905        1.81698        0.55851
C          6.74324        0.66010        2.23531
H          6.33362        0.22592        3.16470
H          7.07718       -0.19897        1.62662
C          7.93214        1.54777        2.56526
H          8.71830        0.99319        3.09968
H          7.63328        2.39704        3.20073
H          8.38362        1.96572        1.65100
H          0.99923       -1.77606        0.34700
H          2.65527       -1.63064        0.99972
C          1.11248       -0.59834        2.15136
H          1.86710       -0.03054        2.72375
H          0.30025        0.11119        1.92180
C          0.55468       -1.72272        3.01097
H          1.36716       -2.41357        3.30141
H         -0.14659       -2.31902        2.40221
C         -0.16601       -1.22928        4.25687
H          0.53617       -0.65326        4.88534
H         -0.94685       -0.50898        3.95236
C         -0.79264       -2.34850        5.07238
H         -1.30907       -1.96435        5.96534
H         -0.03158       -3.06880        5.41321
H         -1.52873       -2.90933        4.47359
C         -2.32326       -1.93825        0.66990
C         -2.40365       -3.01920       -0.21369
H         -1.76742       -3.02422       -1.10056
C         -3.10161       -1.93603        1.83167
H         -3.00355       -1.10955        2.53687
C         -3.28547       -4.06677        0.03484
H         -3.36802       -4.91611       -0.64574
C         -3.98410       -2.98262        2.08717
H         -4.60186       -2.99880        2.98689
C         -4.07352       -4.03164        1.17976
F         -4.92100       -5.03177        1.41945
H         -3.71899        0.64865        1.06292
H         -2.31284        1.52482        1.70261
C         -3.47947        2.65864        0.26921
H         -2.66286        3.27682       -0.13848
H         -4.15635        2.45967       -0.58001
C         -4.22577        3.44628        1.33667
H         -3.53569        3.65628        2.17369
H         -5.03547        2.82389        1.76007
C         -4.80724        4.75589        0.82335
H         -3.99149        5.36788        0.40010
H         -5.48991        4.54394       -0.01888
C         -5.54234        5.54934        1.89128
H         -5.94945        6.49017        1.49098
H         -4.87310        5.80616        2.72810
H         -6.38420        4.97377        2.30908
H         -2.83474        0.81846       -2.48734
H         -2.30536       -0.83478       -2.25632
C         -4.29643       -0.42491       -1.46677
H         -4.33520       -1.12285       -0.61667
H         -4.87685        0.46037       -1.15701
C         -4.97732       -1.07901       -2.66098
H         -4.39084       -1.96432       -2.96814
H         -4.95556       -0.39022       -3.52524
C         -6.41192       -1.50182       -2.37840
H         -6.41823       -2.18555       -1.51098
H         -6.99526       -0.61756       -2.06568
C         -7.08987       -2.17016       -3.56324
H         -8.12319       -2.46581       -3.32689
H         -6.54742       -3.07787       -3.87335
H         -7.12750       -1.49700       -4.43488
