112
Cat538.ts34.5.log	Energy: -2283317.9505902
C          1.59108        0.42828        3.25520
H          1.40489       -0.23149        4.10712
H          2.65456        0.55424        3.01906
C          0.68863        1.52000        3.03507
H         -0.20860        1.60876        3.65431
H          1.10737        2.49907        2.76940
H          0.38920        1.49572        1.48451
Rh         0.33622       -0.12426        1.62168
O          2.18602        0.64390       -1.18057
C          3.71061       -0.70254        0.75492
C          2.10205       -1.94691       -1.17783
O         -2.09150       -1.36643       -0.23289
C         -3.14858        0.71899        1.11642
C         -1.33826        1.21690       -1.04556
P         -1.55638        0.09355        0.39580
P          2.01463       -0.54059        0.01626
C         -0.16954       -1.76688        2.40801
O         -0.51281       -2.75525        2.89559
C          2.14071        1.97476       -1.00112
C          2.30317        2.60712        0.23847
H          2.53773        2.01547        1.12140
C          1.95963        2.75979       -2.14368
H          1.86151        2.25819       -3.10642
C          2.20687        3.99280        0.33962
H          2.32342        4.49673        1.30141
C          1.87706        4.14521       -2.04984
H          1.70983        4.76356       -2.93348
C          1.97494        4.74655       -0.80272
F          1.84184        6.07739       -0.69696
C          3.84042       -1.79552        1.63493
O          2.78858       -2.63289        1.64257
C          2.72465       -3.68436        2.56214
H          1.74921       -4.16189        2.41364
H          3.52638       -4.42354        2.38968
H          2.78712       -3.31785        3.60122
C          4.80554        0.17199        0.63430
O          4.71444        1.16139       -0.27418
C          5.62562        2.22015       -0.25113
H          5.25218        2.96257       -0.96882
H          6.63877        1.90183       -0.55610
H          5.68535        2.68941        0.74640
C          5.95046       -0.00199        1.42762
H          6.79138        0.68485        1.33800
C          4.97909       -1.98124        2.42447
H          5.05448       -2.82611        3.10799
C          6.02266       -1.06838        2.31557
H          6.91849       -1.19805        2.92753
C          3.11134       -1.96293       -2.16794
O          4.03080       -0.99267       -2.09756
C          5.03780       -0.89194       -3.05607
H          5.63226       -0.01249       -2.77828
H          5.69280       -1.78126       -3.06548
H          4.62752       -0.74126       -4.07045
C          1.18271       -3.01689       -1.15650
O          0.29735       -3.05342       -0.15911
C         -0.73584       -3.99836       -0.17899
H         -1.36681       -3.78268        0.68926
H         -0.34387       -5.02756       -0.09557
H         -1.34711       -3.91085       -1.09193
C          1.21968       -4.01254       -2.14890
H          0.49801       -4.82725       -2.13828
C          3.14502       -2.95278       -3.15999
H          3.91733       -2.94558       -3.92797
C          2.19108       -3.96277       -3.13927
H          2.21408       -4.73984       -3.90755
C         -3.34647       -1.71393       -0.61860
C         -3.66622       -1.78174       -1.97677
H         -2.90109       -1.49830       -2.69882
C         -4.29625       -2.07383        0.34040
H         -4.02343       -2.03376        1.39601
C         -4.93624       -2.18750       -2.37507
H         -5.21096       -2.24866       -3.43000
C         -5.57166       -2.47314       -0.05293
H         -6.33154       -2.75192        0.67921
C         -5.87749       -2.52033       -1.40679
F         -7.10010       -2.90181       -1.78913
C         -4.19707        1.19880        0.29985
O         -4.00778        1.11152       -1.02384
C         -4.99588        1.52872       -1.92003
H         -4.58997        1.34923       -2.92333
H         -5.92605        0.94793       -1.79781
H         -5.21598        2.60463       -1.81176
C         -3.36472        0.71141        2.51093
O         -2.41146        0.15331        3.27018
C         -2.53596        0.11127        4.66037
H         -1.62819       -0.38291        5.03068
H         -3.41675       -0.47363        4.97870
H         -2.59995        1.12254        5.09943
C         -4.54022        1.23660        3.06748
H         -4.68990        1.23723        4.14605
C         -5.37506        1.71872        0.84971
H         -6.17188        2.08920        0.20664
C         -5.52617        1.74064        2.22998
H         -6.44404        2.14504        2.66378
C         -1.43223        2.60355       -0.82290
O         -1.56535        2.97349        0.46639
C         -1.63529        4.33126        0.79786
H         -1.70006        4.37741        1.89229
H         -0.73594        4.87703        0.46525
H         -2.53219        4.80978        0.36732
C         -1.02140        0.77819       -2.34046
O         -0.76881       -0.53612       -2.50676
C         -0.12951       -0.95797       -3.68207
H          0.11866       -2.01634       -3.53795
H          0.80383       -0.39535       -3.84815
H         -0.78250       -0.85648       -4.56731
C         -0.98439        1.68726       -3.40864
H         -0.77772        1.33978       -4.42003
C         -1.39935        3.51589       -1.88041
H         -1.49978        4.58517       -1.70062
C         -1.20478        3.03804       -3.17133
H         -1.18091        3.74150       -4.00712
