86
Cat504.ts34.5.log	Energy: -1882596.6611108
C         -2.15595        1.67502       -2.49643
H         -1.99630        1.49143       -3.56211
H         -3.18159        1.50982       -2.15392
C         -1.36216        2.66086       -1.85146
H         -0.56812        3.17005       -2.40482
H         -1.82624        3.28183       -1.07739
H         -0.79802        1.91480       -0.46049
Rh        -0.65808        0.59220       -1.38149
O         -2.81026        0.21569        1.32547
C         -3.65278       -1.21284       -0.78335
C         -1.51541       -2.02408        0.88215
O          1.87133       -1.24284       -0.42701
C          2.76113        1.29318       -0.98259
C          1.39809        0.69073        1.44274
P          1.33192        0.34673       -0.35057
P         -2.12201       -0.55157       -0.01549
C         -0.11782       -0.44802       -2.87339
O          0.24020       -1.08970       -3.76051
C         -2.90042        1.57843        1.35318
C         -3.94395        2.23591        0.70298
H         -4.69246        1.65021        0.16491
C         -1.93354        2.31242        2.03814
H         -1.11761        1.78035        2.52840
C         -4.01197        3.62717        0.74221
H         -4.83051        4.13559        0.22518
C         -2.01319        3.70104        2.06709
H         -1.24310        4.26629        2.59975
C         -3.05069        4.38613        1.42081
C         -3.14407        5.88344        1.47997
H         -3.69057        6.21137        2.38019
H         -3.67751        6.28940        0.60837
H         -2.14794        6.34830        1.51745
C         -3.65624       -1.52343       -2.14642
H         -2.75836       -1.33311       -2.73966
C         -4.81398       -1.42709       -0.02969
H         -4.81995       -1.17366        1.03287
C         -4.79116       -2.05736       -2.75190
H         -4.81146       -2.30725       -3.81415
C         -5.95844       -1.94694       -0.62485
H         -6.87510       -2.11727       -0.05703
C         -5.92849       -2.25999       -1.98042
F         -7.02164       -2.75860       -2.55286
C         -1.84152       -2.27340        2.22040
H         -2.50660       -1.58760        2.74765
C         -0.63911       -2.88816        0.21602
H         -0.34675       -2.67433       -0.81432
C         -1.29349       -3.36577        2.88787
H         -1.52697       -3.57487        3.93369
C         -0.09111       -3.98687        0.87064
H          0.60649       -4.66066        0.37052
C         -0.42372       -4.20740        2.20256
F          0.10985       -5.24641        2.84191
C          3.17909       -1.63506       -0.32399
C          3.71961       -2.01027        0.90450
H          3.09848       -1.97897        1.79998
C          3.96704       -1.68463       -1.47527
H          3.52599       -1.38987       -2.42950
C          5.05127       -2.41700        0.97463
H          5.46765       -2.70760        1.94314
C          5.29314       -2.09106       -1.38843
H          5.90283       -2.11804       -2.29587
C          5.86343       -2.46164       -0.16297
C          7.29111       -2.91945       -0.08587
H          7.66428       -2.90451        0.94793
H          7.95102       -2.28430       -0.69598
H          7.39785       -3.95096       -0.46076
C          3.97792        1.37756       -0.28748
H          4.08296        0.91183        0.69464
C          2.65384        1.89263       -2.24196
H          1.69923        1.82181       -2.77247
C          5.06509        2.04147       -0.84191
H          6.02114        2.11096       -0.32037
C          3.73484        2.56155       -2.80931
H          3.66852        3.03554       -3.79012
C          4.92736        2.62332       -2.09881
F          5.96620        3.25885       -2.63113
C          1.66015        1.98202        1.91741
H          1.93012        2.77732        1.21833
C          1.03317       -0.30773        2.35371
H          0.80714       -1.31316        1.99478
C          1.57685        2.27085        3.27672
H          1.78409        3.26993        3.66434
C          0.94321       -0.03130        3.71491
H          0.65719       -0.80125        4.43352
C          1.21944        1.25675        4.15913
F          1.13953        1.52760        5.45873
