104
Cat588.ts34.5.log	Energy: -2170051.5695678
C         -0.44815       -1.96272        3.19494
H         -0.51050       -1.41796        4.14046
H         -1.27100       -2.66264        3.02319
C          0.84200       -2.28043        2.68720
H          1.72925       -1.92805        3.21999
H          0.99126       -3.25013        2.19890
H          0.83851       -1.79280        1.13127
Rh        -0.06818       -0.53708        1.61982
O         -1.38779       -2.81255       -0.58332
C         -3.23824       -2.01741        1.06211
C         -2.32429       -0.30790       -1.23947
O          1.05318        1.41217       -0.99711
C          2.11976        2.19228        1.39417
C          2.90299       -0.26894       -0.19212
P          1.47555        0.69939        0.49168
P         -1.74499       -1.33714        0.19890
C         -0.69309        0.91573        2.63919
O         -1.06719        1.82609        3.24362
C         -0.16736       -3.11010       -1.07961
C          0.46805       -4.27109       -0.62680
H         -0.03254       -4.87744        0.13051
C          0.46020       -2.31955       -2.04836
H         -0.01281       -1.40001       -2.39413
C          1.70937       -4.64200       -1.13234
H          2.21065       -5.54291       -0.77477
C          1.69375       -2.69639       -2.57118
H          2.17647       -2.08433       -3.33432
C          2.31892       -3.85038       -2.10496
Cl         3.87906       -4.29649       -2.72131
H         -2.76351       -2.85907        1.60260
C         -4.34739       -2.62071        0.20160
H         -3.91791       -3.30753       -0.54279
H         -4.86150       -1.81823       -0.35393
C         -5.37002       -3.34331        1.07543
H         -6.17772       -3.75442        0.44813
H         -4.88278       -4.20866        1.56047
C         -5.94205       -2.42082        2.14606
H         -6.65110       -2.96840        2.78796
H         -6.52337       -1.61777        1.65708
C         -4.83622       -1.79344        2.98792
H         -4.32658       -2.58480        3.56739
H         -5.26195       -1.09487        3.72622
C         -3.80619       -1.07320        2.12309
H         -4.28313       -0.20608        1.63662
H         -2.99011       -0.67309        2.74288
H         -1.38923        0.19326       -1.55343
C         -3.28182        0.80172       -0.79751
H         -2.86978        1.34354        0.06868
H         -4.23463        0.35236       -0.46917
C         -3.55436        1.76364       -1.94956
H         -4.25325        2.55261       -1.62826
H         -2.61532        2.27428       -2.21576
C         -4.08784        1.03561       -3.17695
H         -4.23861        1.74646       -4.00535
H         -5.08113        0.60684       -2.94975
C         -3.14592       -0.08594       -3.60049
H         -2.18662        0.35218       -3.93200
H         -3.55563       -0.63107       -4.46640
C         -2.88404       -1.05579       -2.45182
H         -3.82699       -1.55417       -2.18078
H         -2.19975       -1.85645       -2.76811
C          0.22839        2.45779       -1.21699
C          0.25583        3.01019       -2.50506
H          0.92248        2.56703       -3.24717
C         -0.62971        3.01015       -0.25926
H         -0.70531        2.57316        0.73436
C         -0.53840        4.10413       -2.82573
H         -0.51401        4.53256       -3.82898
C         -1.41939        4.11287       -0.57660
H         -2.08821        4.53909        0.17276
C         -1.37325        4.65931       -1.85537
Cl        -2.37959        6.01333       -2.25419
H          1.18897        2.77074        1.53729
C          3.09283        3.10560        0.65100
H          2.73689        3.31376       -0.36948
H          4.06842        2.60024        0.55296
C          3.28266        4.40704        1.42677
H          3.99884        5.05922        0.90104
H          2.32229        4.95300        1.44720
C          3.75047        4.14511        2.85472
H          3.83452        5.09289        3.41074
H          4.76731        3.71243        2.82550
C          2.82193        3.18004        3.58555
H          1.83517        3.65478        3.73240
H          3.21292        2.95940        4.59202
C          2.63167        1.88377        2.80392
H          3.59536        1.35191        2.74396
H          1.93196        1.20939        3.32146
H          2.38212       -1.15158       -0.60156
C          3.83164       -0.77140        0.91523
H          3.24853       -1.20998        1.73847
H          4.39004        0.08037        1.33981
C          4.82937       -1.78256        0.36004
H          5.49323       -2.13679        1.16532
H          4.28361       -2.66788       -0.01130
C          5.64488       -1.17927       -0.77750
H          6.33297       -1.93086       -1.19647
H          6.27566       -0.36442       -0.37691
C          4.74024       -0.62822       -1.87337
H          4.22524       -1.47368       -2.35791
H          5.34117       -0.14133       -2.65878
C          3.70747        0.35852       -1.33221
H          4.22619        1.26107       -0.97346
H          3.03002        0.68605       -2.13314
