96
Cat540.ts34.5.log	Energy: -1996156.3864822
C         -0.96300       -4.39334       -0.85757
H         -0.76151       -5.16357       -0.10929
H         -2.02136       -4.25399       -1.09530
C          0.01916       -4.14182       -1.85134
H          0.98246       -4.65658       -1.80905
H         -0.31057       -3.90911       -2.86931
H          0.21941       -2.49186       -1.84938
Rh         0.02882       -2.57996       -0.24305
O         -2.20933       -0.39354       -1.62382
O         -3.21667       -1.80316        0.25046
O         -1.56114        0.09714        0.79610
O          2.26955       -0.80478        1.37787
O          3.12140       -1.60396       -0.91066
O          1.48552        0.33861       -0.77251
P          1.73240       -1.16845       -0.13711
P         -1.75645       -1.18592       -0.23715
C          0.25637       -3.20412        1.54807
O          0.38269       -3.54078        2.63662
C         -2.45034        0.95014       -1.77078
C         -3.75539        1.41516       -1.92884
H         -4.58699        0.71006       -1.91685
C         -1.37373        1.83717       -1.78839
H         -0.36449        1.44246       -1.67122
C         -3.98390        2.78044       -2.08751
H         -4.99467        3.17351       -2.20979
C         -1.59993        3.20242       -1.93446
H         -0.77318        3.91499       -1.93393
C         -2.90580        3.65780       -2.08027
F         -3.12916        4.96582       -2.22097
C         -4.46334       -1.45903       -0.21393
C         -4.88903       -1.93013       -1.45572
H         -4.21373       -2.54390       -2.05420
C         -5.31087       -0.67025        0.56108
H         -4.97444       -0.30931        1.53297
C         -6.15281       -1.58866       -1.92778
H         -6.47136       -1.95241       -2.90855
C         -6.57331       -0.34013        0.07484
H         -7.22643        0.28836        0.68648
C         -7.01859       -0.78438       -1.17560
C         -8.39044       -0.44087       -1.67934
H         -8.41064       -0.36473       -2.77630
H         -8.74515        0.51339       -1.26378
H         -9.12242       -1.21455       -1.39259
C         -2.43501        0.60794        1.72063
C         -2.70576       -0.10505        2.88816
H         -2.23946       -1.08006        3.04033
C         -3.00680        1.86026        1.51075
H         -2.77891        2.40805        0.59590
C         -3.58152        0.42932        3.82834
H         -3.80079       -0.14080        4.73528
C         -3.87629        2.38161        2.46546
H         -4.33095        3.36030        2.28917
C         -4.18676        1.67838        3.63529
C         -5.10947        2.25679        4.66877
H         -4.54202        2.76702        5.46511
H         -5.71481        1.47562        5.15175
H         -5.79371        2.99665        4.22926
C          3.57049       -0.69038        1.80076
C          4.10022        0.56778        2.08453
H          3.48421        1.45638        1.94497
C          4.33681       -1.84153        1.98507
H          3.89790       -2.81625        1.76665
C          5.41310        0.67628        2.53520
H          5.85426        1.64857        2.76087
C          5.65132       -1.73517        2.43100
H          6.27522       -2.61830        2.57852
C          6.17498       -0.47480        2.69713
F          7.43375       -0.36939        3.12286
C          3.93271       -0.80808       -1.68505
C          5.17572       -0.40524       -1.20453
H          5.48976       -0.70566       -0.20482
C          3.51815       -0.43456       -2.96267
H          2.53940       -0.75583       -3.32278
C          5.99186        0.39142       -2.00374
H          6.96231        0.71167       -1.61491
C          4.34433        0.36529       -3.74622
H          4.00606        0.66543       -4.74177
C          5.59429        0.79675       -3.28314
C          6.49065        1.63712       -4.14563
H          7.17145        2.25251       -3.54006
H          5.91134        2.30747       -4.79725
H          7.11494        1.00574       -4.79994
C          1.83120        1.55034       -0.21487
C          2.87627        2.29163       -0.75854
H          3.44432        1.89288       -1.59918
C          1.08950        2.04925        0.85555
H          0.26516        1.45518        1.25024
C          3.19026        3.53119       -0.20427
H          4.01902        4.10488       -0.62803
C          1.42035        3.28723        1.39664
H          0.83910        3.66774        2.24104
C          2.47709        4.05093        0.88194
C          2.80737        5.39683        1.45919
H          3.82802        5.70927        1.19640
H          2.72109        5.39717        2.55595
H          2.11819        6.16976        1.07994
