76
Cat526.ts34.5.log	Energy: -1425092.0182392
C          0.20580       -2.15159       -3.04329
H          0.24354       -1.67519       -4.02619
H          0.99693       -2.88323       -2.86180
C         -1.06326       -2.34741       -2.44004
H         -1.96029       -1.99392       -2.95466
H         -1.23252       -3.26464       -1.86413
H         -1.01150       -1.69119       -0.96475
Rh         0.01763       -0.58008       -1.56645
O          0.87744       -2.28642        1.30195
C          2.61584       -2.80708       -0.58019
C          2.61699       -0.19200        0.93591
O         -1.14684        1.93952        0.55027
C         -2.02619        2.24852       -1.98682
C         -3.03001        0.18105       -0.00186
P         -1.50666        0.93015       -0.77033
P          1.54401       -1.40305        0.00964
C          0.93005        0.66621       -2.63074
O          1.50508        1.43573       -3.27153
C         -0.33760       -2.03517        1.84492
C         -1.36208       -2.97042        1.67304
H         -1.16497       -3.85781        1.06888
C         -0.56920       -0.89166        2.61506
H          0.22797       -0.15788        2.73865
C         -2.60408       -2.77423        2.27263
H         -3.41714       -3.49191        2.14939
C         -1.80597       -0.69240        3.22131
H         -2.00775        0.19381        3.82542
C         -2.81002       -1.63512        3.04125
F         -4.00572       -1.43091        3.60031
H          1.82225       -3.49314       -0.93198
C          3.46792       -2.42405       -1.78723
H          3.76788       -3.32821       -2.34017
H          2.92844       -1.76274       -2.48113
H          4.38989       -1.91044       -1.48118
C          3.42072       -3.54634        0.48072
H          2.81458       -3.76555        1.37005
H          3.78920       -4.50155        0.07200
H          4.30221       -2.96743        0.79293
H          1.88502        0.60480        1.14807
C          3.19489       -0.66613        2.26298
H          3.55655        0.20386        2.83471
H          2.44923       -1.19234        2.87504
H          4.04710       -1.34523        2.12209
C          3.68158        0.41204        0.02701
H          3.26853        0.72796       -0.94261
H          4.11677        1.30134        0.50723
H          4.50212       -0.29626       -0.15868
C          0.05814        2.45343        0.87793
C          0.35404        2.57113        2.24171
H         -0.39414        2.24749        2.96705
C          0.99127        2.89505       -0.06547
H          0.77284        2.83366       -1.13008
C          1.57642        3.08737        2.66010
H          1.82484        3.17495        3.71935
C          2.21428        3.41618        0.34902
H          2.95487        3.75409       -0.37775
C          2.50120        3.49219        1.70440
F          3.68977        3.95709        2.09720
H         -1.06089        2.75970       -2.15576
C         -2.45672        1.66578       -3.32863
H         -2.49738        2.46220       -4.08821
H         -1.75044        0.89551       -3.67281
H         -3.45679        1.21205       -3.27424
C         -3.01306        3.27669       -1.45151
H         -2.71887        3.64719       -0.45964
H         -3.06882        4.13835       -2.13609
H         -4.02717        2.85661       -1.37561
H         -2.56597       -0.64396        0.56148
C         -3.80320        1.04097        0.99076
H         -4.48376        0.39648        1.56957
H         -3.13371        1.54689        1.69644
H         -4.41297        1.80556        0.48945
C         -3.95756       -0.43719       -1.04163
H         -3.41564       -1.03422       -1.78700
H         -4.67886       -1.10169       -0.54048
H         -4.53782        0.33169       -1.57371
