106
Cat518.ts34.5.log	Energy: -1547116.6223767
C          2.31276        2.39492       -2.36780
H          2.46162        3.45626       -2.15278
H          3.23749        1.84843       -2.57779
C          1.11949        2.00844       -3.05406
H          0.35558        2.75995       -3.27262
H          1.19204        1.24456       -3.83719
H          0.60328        0.71130       -2.20903
Rh         1.02402        1.54383       -0.88390
O          2.55158       -1.60261       -0.98748
C          4.25197        0.24472       -0.23081
C          2.21291       -0.75182        1.55068
O         -0.88618        0.00719        1.34501
C         -2.16945        2.22363        0.40739
C         -1.98407       -0.17070       -1.19860
P         -0.99061        0.90519       -0.08637
P          2.45473       -0.11501       -0.15617
C          1.13311        3.03541        0.27462
O          1.17480        3.92463        1.00780
C          1.45659       -2.21339       -1.50411
C          1.05112       -1.95156       -2.81467
H          1.61398       -1.22479       -3.40263
C          0.75001       -3.15407       -0.74841
H          1.07750       -3.36287        0.27208
C         -0.03772       -2.62897       -3.35901
H         -0.33764       -2.41688       -4.38919
C         -0.33478       -3.82625       -1.30529
H         -0.86748       -4.57045       -0.70556
C         -0.75011       -3.58091       -2.62070
C         -1.88950       -4.34982       -3.22435
H         -1.58751       -5.38348       -3.46083
H         -2.23987       -3.88582       -4.15653
H         -2.74583       -4.41191       -2.53564
H          4.38171        1.21468        0.27928
H          4.44478        0.44065       -1.29736
C          5.20017       -0.81077        0.31545
H          5.02594       -0.93112        1.39790
H          4.96296       -1.78500       -0.14627
C          6.68554       -0.50161        0.10139
H          6.88197        0.50138        0.52592
C          7.54657       -1.50692        0.85800
H          7.31354       -1.50832        1.93438
H          8.61922       -1.28499        0.74545
H          7.37635       -2.52875        0.47952
C          7.06555       -0.46965       -1.37506
H          8.13777       -0.25499       -1.50349
H          6.50919        0.29813       -1.93322
H          6.86011       -1.44331       -1.85085
H          2.91462       -1.58465        1.72159
H          1.18986       -1.15557        1.56086
C          2.35564        0.33262        2.60800
H          3.35462        0.79743        2.53070
H          1.62859        1.13534        2.39691
C          2.16222       -0.15163        4.04806
H          2.88586       -0.97061        4.22412
C          2.48262        0.97390        5.02522
H          3.50806        1.35090        4.88617
H          2.38393        0.64087        6.07017
H          1.79460        1.82322        4.87882
C          0.76151       -0.69913        4.29518
H          0.64952       -1.04225        5.33547
H          0.52058       -1.54858        3.63939
H          0.00144        0.07702        4.11182
C         -1.90458       -0.70641        1.90453
C         -2.05258       -2.05934        1.59010
H         -1.35508       -2.51507        0.88622
C         -2.77432       -0.11342        2.81973
H         -2.63036        0.93358        3.09202
C         -3.09380       -2.79170        2.14871
H         -3.20526       -3.84713        1.88346
C         -3.81310       -0.86053        3.37215
H         -4.49298       -0.38315        4.08322
C         -4.00348       -2.20591        3.03965
C         -5.14356       -3.00017        3.60840
H         -5.90488       -3.20990        2.83882
H         -5.64066       -2.46179        4.42745
H         -4.80282       -3.97146        3.99869
H         -1.68715        2.76215        1.24073
H         -3.08760        1.76005        0.79882
C         -2.46500        3.18204       -0.73830
H         -1.50481        3.54717       -1.14084
H         -2.95303        2.63784       -1.56823
C         -3.34071        4.37750       -0.35614
H         -2.83528        4.90048        0.47746
C         -3.44214        5.34946       -1.52578
H         -2.44717        5.68804       -1.85378
H         -4.03140        6.24052       -1.25927
H         -3.93397        4.87203       -2.39005
C         -4.72534        3.95401        0.12213
H         -5.34247        4.82934        0.37750
H         -4.67936        3.31242        1.01500
H         -5.25544        3.39215       -0.66588
H         -1.46181       -1.14294       -1.19313
H         -1.80042        0.24152       -2.20317
C         -3.47605       -0.33688       -0.92983
H         -3.66333       -0.45658        0.14692
H         -4.01464        0.57956       -1.23057
C         -4.09555       -1.53679       -1.64883
H         -3.51083       -2.42586       -1.34618
C         -5.53265       -1.74579       -1.18828
H         -5.58205       -1.88405       -0.09650
H         -5.98419       -2.63028       -1.66435
H         -6.15918       -0.87479       -1.44402
C         -4.00839       -1.40868       -3.16476
H         -4.45925       -2.27955       -3.66528
H         -2.96610       -1.33179       -3.50909
H         -4.54631       -0.51021       -3.51200
