80
Cat587.ts34.5.log	Energy: -2066022.5005756
C          1.18047       -1.64709        3.41828
H          1.88393       -1.13691        4.08141
H          0.14194       -1.65274        3.76150
C          1.65251       -2.75088        2.65474
H          2.71429       -3.00941        2.66714
H          0.99181       -3.61381        2.52096
H          1.03639       -2.43948        1.13231
Rh         1.44417       -0.90181        1.41492
O         -1.23927       -0.42258       -0.46037
O         -1.81231       -1.43796        1.81425
O         -1.44434        1.00603        1.66006
O          1.67799        0.13351       -1.79385
O          3.87758       -0.70040       -0.80491
O          2.12506       -2.26587       -1.57872
P          2.28816       -0.94287       -0.65357
P         -0.75567       -0.39365        1.14823
C          2.56664        0.51382        2.01334
O          3.24498        1.36452        2.38412
C         -2.52818       -0.38992       -0.90059
C         -3.09280       -1.55741       -1.41835
H         -2.49973       -2.47336       -1.42034
C         -3.26892        0.79462       -0.88549
H         -2.81675        1.69765       -0.47766
C         -4.39194       -1.54745       -1.91682
H         -4.84065       -2.45495       -2.32395
C         -4.57107        0.80711       -1.37636
H         -5.15928        1.72614       -1.36649
C         -5.12844       -0.36390       -1.88901
Cl        -6.74958       -0.34714       -2.50152
C         -3.10667       -1.13479        2.36811
H         -3.49666       -0.22981        1.87690
C         -2.95489       -0.87140        3.85230
H         -2.27989       -0.02201        4.02416
H         -2.54326       -1.75838        4.35881
H         -3.92978       -0.63588        4.30519
C         -4.00961       -2.30897        2.06082
H         -4.09731       -2.45573        0.97570
H         -3.60731       -3.23006        2.50970
H         -5.01605       -2.13310        2.46886
C         -0.65264        2.17720        1.92116
H          0.24466        2.13861        1.27923
C         -0.22822        2.18374        3.37548
H          0.32291        1.26451        3.61896
H         -1.10837        2.25307        4.03372
H          0.42860        3.04213        3.58036
C         -1.48931        3.38115        1.54982
H         -1.76598        3.35628        0.48732
H         -2.40836        3.41182        2.15521
H         -0.92351        4.30833        1.71865
C          1.39055        1.43273       -1.52496
C          0.19641        1.95747       -2.02551
H         -0.47353        1.30233       -2.58337
C          2.25716        2.25027       -0.79478
H          3.19647        1.84502       -0.41667
C         -0.12860        3.29010       -1.80260
H         -1.05722        3.70776       -2.19558
C          1.92416        3.58084       -0.55164
H          2.59098        4.21885        0.03026
C          0.73302        4.09526       -1.05646
Cl         0.30518        5.74721       -0.74140
C          4.55874       -0.77053       -2.07625
H          3.79973       -0.75760       -2.87561
C          5.32936       -2.07235       -2.13217
H          4.64071       -2.92207       -2.03215
H          6.06620       -2.11618       -1.31564
H          5.86371       -2.16241       -3.09004
C          5.43302        0.45906       -2.19127
H          4.82585        1.37541       -2.17900
H          6.14714        0.50085       -1.35470
H          6.00090        0.43750       -3.13332
C          0.84401       -2.88704       -1.77151
H          0.14227       -2.46591       -1.03105
C          1.01590       -4.36675       -1.50864
H          1.37153       -4.53505       -0.48172
H          1.75179       -4.79868       -2.20435
H          0.06064       -4.89693       -1.63925
C          0.34830       -2.56143       -3.16487
H          0.25882       -1.47397       -3.28911
H          1.04873       -2.94539       -3.92252
H         -0.63780       -3.01721       -3.34066
