40
Cat5.ts34.5.log	Energy: -957319.0703753
C         -1.06806       -2.58949       -1.00671
H         -1.13099       -3.41533       -0.29321
H         -2.02420       -2.31254       -1.46200
C          0.12417       -2.46107       -1.78227
H          0.96559       -3.13198       -1.58853
H          0.03390       -2.18850       -2.83929
H          0.49034       -0.84802       -1.68478
Rh         0.02557       -0.96120       -0.13547
C         -1.67181        1.61658       -1.92741
O         -3.18605        0.23448       -0.34167
O         -1.48274        1.82046        0.77418
C          1.66791        1.34346        1.91335
O          3.24963        0.04431        0.30490
O          1.65247        1.74035       -0.78205
P          1.66327        0.49993        0.31087
P         -1.58011        0.64332       -0.39383
C          0.05151       -1.74216        1.60183
O          0.05282       -2.17807        2.66773
H         -0.71163        2.14249       -2.03094
H         -1.77863        0.91433       -2.76609
H         -2.51338        2.32366       -1.93944
C         -3.62976       -0.64465        0.66776
H         -2.88800       -1.43914        0.85722
H         -3.81402       -0.10497        1.61225
H         -4.57207       -1.09837        0.32927
C         -2.36592        2.91804        0.79938
H         -2.04774        3.70974        0.09942
H         -3.39607        2.61412        0.54986
H         -2.35744        3.33137        1.81830
H          1.68935        0.57908        2.70238
H          2.53565        2.00721        2.03014
H          0.72402        1.90236        1.98551
C          3.69372       -0.91189       -0.63163
H          2.96762       -1.73777       -0.72054
H          3.84031       -0.45961       -1.62732
H          4.65542       -1.30555       -0.27453
C          2.56747        2.80862       -0.69223
H          2.24923        3.55044        0.06005
H          3.58026        2.45352       -0.44018
H          2.60006        3.30163       -1.67419
