90
Cat568.ts34.5.log	Energy: -1822374.4702299
C          0.33543       -3.50488       -1.85149
H          0.13994       -3.71444       -2.90572
H          1.34952       -3.74175       -1.51864
C         -0.73580       -3.58874       -0.92851
H         -1.75319       -3.78854       -1.27518
H         -0.53300       -3.95639        0.08377
H         -0.66020       -2.16182       -0.06248
Rh        -0.26692       -1.45862       -1.45897
O          2.33347       -1.45337        0.76906
O          3.01161       -0.73384       -1.50953
O          1.62393        0.87167       -0.04752
O         -1.95078        1.37348       -1.76099
O         -3.34814       -0.34846       -0.62789
O         -1.38959        0.66603        0.67054
P         -1.74034        0.06215       -0.81893
P          1.66288       -0.69620       -0.57302
C         -0.29599       -1.00810       -3.32042
O         -0.29709       -0.72365       -4.42991
C          1.58255       -2.14832        1.67538
C          0.46903       -1.57461        2.29007
H          0.16205       -0.56267        2.02058
C          1.98650       -3.46124        1.96770
C          3.18440       -4.04396        1.28377
H          3.10423       -3.95194        0.18978
H          4.10446       -3.50979        1.57042
H          3.30941       -5.10485        1.53875
C         -0.26021       -2.31294        3.22114
H         -1.12716       -1.85901        3.70736
C          1.23521       -4.17709        2.90333
H          1.53366       -5.20144        3.14249
C          0.12047       -3.61652        3.52807
H         -0.44619       -4.19966        4.25744
C          4.19437       -0.05294       -1.34775
C          4.98425       -0.20785       -0.20828
H          4.65336       -0.87786        0.58481
C          4.59240        0.79177       -2.38273
H          3.95452        0.87770       -3.26440
C          6.16100        0.52798       -0.09496
H          6.77011        0.42548        0.80604
C          5.77791        1.51230       -2.26212
H          6.08820        2.17858       -3.07069
C          6.56084        1.39117       -1.11456
H          7.48470        1.96535       -1.01672
C          2.51691        1.60179        0.69810
C          3.12894        2.70024        0.09465
H          2.91856        2.90924       -0.95497
C          2.75321        1.30530        2.04067
H          2.25714        0.45512        2.50812
C          4.01181        3.48409        0.82978
H          4.50248        4.33381        0.34966
C          3.63946        2.09975        2.76655
H          3.83093        1.86301        3.81593
C          4.27574        3.18463        2.16676
H          4.97247        3.79943        2.74059
C         -2.64502        2.52109       -1.42574
C         -4.03184        2.54448       -1.53197
H         -4.54886        1.64659       -1.87158
C         -1.90528        3.63684       -1.01205
C         -0.40925        3.59177       -0.97653
H         -0.00170        4.46756       -0.45442
H         -0.03456        2.68573       -0.48132
H          0.00141        3.57674       -1.99964
C         -4.72300        3.69869       -1.17350
H         -5.81277        3.72329       -1.24484
C         -2.62830        4.77670       -0.64880
H         -2.07921        5.65496       -0.29957
C         -4.01973        4.81208       -0.71866
H         -4.55532        5.71671       -0.42227
C         -3.68516       -1.60111       -0.18387
C         -4.44450       -2.41959       -1.01849
H         -4.74537       -2.04018       -1.99652
C         -3.26593       -2.05378        1.06749
H         -2.66657       -1.40125        1.70355
C         -4.78618       -3.70139       -0.59359
H         -5.38064       -4.34456       -1.24681
C         -3.60089       -3.34285        1.47630
H         -3.25501       -3.70208        2.44834
C         -4.36099       -4.16974        0.65053
H         -4.62149       -5.17960        0.97452
C         -1.94245        1.61892        1.49143
C         -3.31801        1.77951        1.65641
H         -4.01085        1.15616        1.09304
C         -1.03938        2.40506        2.20815
H          0.03121        2.24986        2.06272
C         -3.78220        2.76662        2.52277
H         -4.85947        2.90635        2.63851
C         -1.51997        3.38040        3.07708
H         -0.81069        3.99930        3.63175
C         -2.89237        3.57080        3.23318
H         -3.26805        4.34259        3.90832
