84
Cat541.ts34.5.log	Energy: -2146526.4250354
C          1.12305       -3.49062       -2.62912
H          1.03564       -3.47211       -3.71796
H          2.13386       -3.67809       -2.25651
C          0.00322       -3.92183       -1.86769
H         -0.94195       -4.14871       -2.36774
H          0.17767       -4.52853       -0.97228
H         -0.18057       -2.77452       -0.70581
Rh         0.21979       -1.69464       -1.84692
O          2.38463       -1.49034        0.84135
O          3.48351       -1.14912       -1.35488
O          1.94450        0.70734       -0.39872
O         -1.95786        0.80486       -1.86882
O         -2.90391       -1.33633       -0.82266
O         -1.25105        0.06685        0.48430
P         -1.47870       -0.53150       -1.03269
P          1.99953       -0.92284       -0.69184
C          0.20875       -0.83895       -3.55800
O          0.20192       -0.30159       -4.56909
C          1.41010       -1.79320        1.75551
C          1.06175       -3.12920        1.95673
H          1.56086       -3.90080        1.36760
C          0.78950       -0.78577        2.49475
H          1.04931        0.25807        2.31341
C          0.09773       -3.46352        2.90493
H         -0.19053       -4.50057        3.08561
C         -0.17508       -1.11302        3.44272
H         -0.68397       -0.34084        4.02192
C         -0.50643       -2.44764        3.63567
F         -1.44320       -2.76511        4.53504
C          4.72065       -0.79879       -0.85945
C          5.29776       -1.50823        0.19203
H          4.75359       -2.33910        0.63974
C          5.40081        0.25937       -1.46018
H          4.93089        0.78983       -2.28937
C          6.54729       -1.12647        0.67441
H          7.02189       -1.65585        1.50252
C          6.64785        0.64358       -0.98033
H          7.19452        1.47924       -1.42017
C          7.20274       -0.05037        0.08923
F          8.39313        0.32066        0.55846
C          2.90587        1.57377        0.06194
C          3.10445        2.74082       -0.67560
H          2.51544        2.89748       -1.58133
C          3.63820        1.34272        1.22821
H          3.48552        0.42572        1.79548
C          4.05516        3.67166       -0.26700
H          4.23331        4.58928       -0.83044
C          4.59755        2.26654        1.63111
H          5.19896        2.10012        2.52631
C          4.79792        3.41822        0.87952
F          5.71840        4.29896        1.26801
C         -3.24965        1.23951       -2.05249
C         -3.71938        2.34590       -1.34650
H         -3.06472        2.85002       -0.63570
C         -4.06646        0.58994       -2.97828
H         -3.67564       -0.26875       -3.52611
C         -5.02159        2.79412       -1.55265
H         -5.41501        3.65639       -1.01173
C         -5.36991        1.03297       -3.18371
H         -6.03189        0.54105       -3.89838
C         -5.83329        2.12928       -2.46406
F         -7.08045        2.55425       -2.65768
C         -3.68609       -1.33069        0.30793
C         -4.91724       -0.67816        0.29528
H         -5.24303       -0.15955       -0.60690
C         -3.24957       -2.00144        1.45050
H         -2.27906       -2.49936        1.44181
C         -5.71242       -0.68693        1.43926
H         -6.68062       -0.18372        1.45896
C         -4.03477       -2.00217        2.59972
H         -3.69828       -2.49955        3.51050
C         -5.25950       -1.34293        2.57823
F         -6.01646       -1.34015        3.67454
C         -1.50554        1.31704        0.98020
C         -2.52807        1.49114        1.91260
H         -3.13929        0.63747        2.20598
C         -0.70199        2.39105        0.59534
H          0.10213        2.22017       -0.12045
C         -2.76260        2.75473        2.44894
H         -3.55843        2.92163        3.17685
C         -0.93801        3.65565        1.12776
H         -0.32520        4.51301        0.84409
C         -1.96894        3.82301        2.04609
F         -2.19641        5.03190        2.55679
