90
Cat54.ts34.5.log	Energy: -1212285.7406007
C         -0.84798       -3.17054       -0.72506
H         -1.14076       -3.87310        0.06005
H         -1.61241       -3.02035       -1.49447
C          0.52749       -3.14002       -1.11598
H          1.25083       -3.75303       -0.57032
H          0.76385       -3.06391       -2.18361
H          0.89269       -1.55469       -1.17403
Rh        -0.03759       -1.40234        0.15795
C         -1.05419        1.07661       -2.36490
C         -3.14842       -0.56506       -1.34950
C         -2.02442        1.49949        0.30853
C          1.19671        0.81544        2.55095
C          3.25737       -0.72984        1.25927
C          1.98226        1.41384       -0.21864
P          1.59888        0.01199        0.93456
P         -1.51349        0.13200       -0.83322
C         -0.66114       -1.82288        1.88461
O         -1.05565       -2.04894        2.94726
H         -0.31905        1.83722       -2.05362
C         -0.46537        0.19237       -3.45210
H         -1.18790       -0.56386       -3.79738
H          0.41798       -0.34822       -3.07799
H         -1.93589        1.62271       -2.74054
H         -0.16242        0.78406       -4.32986
H         -2.93344       -1.31231       -2.13253
H         -3.74667        0.22795       -1.82758
C         -3.89597       -1.22349       -0.19986
H         -3.19791       -1.89450        0.32768
H         -4.19366       -0.45725        0.54008
C         -5.14019       -2.01497       -0.60785
H         -4.81900       -2.77328       -1.34736
C         -5.71455       -2.75135        0.59674
H         -4.96475       -3.41298        1.05730
H         -6.58437       -3.36615        0.31736
H         -6.04586       -2.03762        1.36968
C         -6.19878       -1.13639       -1.26544
H         -7.09026       -1.72229       -1.53861
H         -5.82696       -0.65474       -2.18239
H         -6.52451       -0.33825       -0.57637
H         -1.09865        2.05880        0.53070
H         -2.29062        0.99033        1.24833
C         -3.12185        2.45355       -0.13686
H         -2.84650        2.91099       -1.10218
H         -4.05521        1.89225       -0.32225
C         -3.42690        3.57751        0.85922
H         -2.48101        4.12208        1.04386
C         -4.42395        4.56194        0.25866
H         -4.05560        4.98145       -0.69068
H         -4.62445        5.40099        0.94289
H         -5.38668        4.06525        0.05142
C         -3.92998        3.04462        2.19644
H         -4.16199        3.86809        2.88940
H         -3.19262        2.39576        2.69182
H         -4.85293        2.45600        2.05875
H          1.09125       -0.02836        3.25310
C          2.11984        1.88005        3.12095
H          2.13621        2.78541        2.49630
H          3.15590        1.52310        3.22381
H          0.17595        1.21121        2.42476
H          1.78014        2.18477        4.12323
H          3.11703       -1.41598        2.11149
H          3.95219        0.05967        1.58716
C          3.80476       -1.49354        0.06260
H          3.08026       -2.28087       -0.19745
H          3.85109       -0.83150       -0.82245
C          5.18477       -2.12047        0.27283
H          5.13083       -2.73937        1.18848
C          5.52817       -3.03910       -0.89424
H          4.76820       -3.82520       -1.02390
H          6.50263       -3.53074       -0.74883
H          5.58080       -2.46925       -1.83726
C          6.27491       -1.07336        0.47603
H          7.25809       -1.54556        0.62684
H          6.08080       -0.43317        1.34979
H          6.35430       -0.41761       -0.40797
H          1.16629        2.14436       -0.07423
H          1.82282        0.98868       -1.22034
C          3.33665        2.10538       -0.14575
H          3.54540        2.43554        0.88318
H          4.13458        1.38480       -0.39659
C          3.46930        3.31454       -1.07778
H          2.67585        4.03489       -0.80037
C          4.81585        3.99692       -0.86568
H          4.95464        4.29774        0.18457
H          4.91434        4.89807       -1.49049
H          5.64390        3.31758       -1.12890
C          3.27292        2.94462       -2.54428
H          3.40589        3.82291       -3.19457
H          2.26994        2.53793       -2.74310
H          4.00925        2.18488       -2.85714
