90
Cat514.ts34.5.log	Energy: -2975656.4922907
C         -1.09394        0.97919       -4.34003
H         -0.99949        0.23530       -5.13459
H         -2.10790        1.35707       -4.18324
C          0.01881        1.81665       -4.06356
H          0.96511        1.65891       -4.58762
H         -0.16634        2.86421       -3.80149
H          0.23275        1.73366       -2.43358
Rh        -0.18822        0.17233       -2.55435
O         -2.26062        1.78429       -0.27592
O         -3.44455        0.33018       -1.90194
O         -2.05195       -0.75127        0.01155
O          1.44407        0.47629        0.28234
O          1.91019       -1.75928       -0.89810
O          3.00592        0.41634       -1.69699
P          1.53891       -0.18421       -1.21764
P         -1.96891        0.40722       -1.18070
C         -0.23235       -1.61353       -3.23208
O         -0.26126       -2.69318       -3.61323
C         -1.24342        2.38685        0.42836
C         -0.54797        3.45064       -0.14081
H         -0.82095        3.79013       -1.14170
C         -0.92494        1.95229        1.71368
H         -1.46200        1.11039        2.15167
C          0.47262        4.06891        0.57928
H          1.01004        4.90888        0.12957
C          0.09517        2.57936        2.41915
H          0.34648        2.21924        3.42016
C          0.82064        3.64046        1.86509
C          1.94649        4.27417        2.62811
H          2.27111        5.21657        2.16426
H          2.82065        3.60338        2.66848
H          1.65664        4.49046        3.66743
C         -4.70399        0.46940       -1.36716
C         -5.15760        1.70067       -0.89750
H         -4.50192        2.56917       -0.94808
C         -5.53311       -0.65084       -1.33360
H         -5.15988       -1.59909       -1.72251
C         -6.42540        1.79348       -0.32995
H         -6.78961        2.74517        0.06026
C         -6.79715       -0.56150       -0.76379
H         -7.44146       -1.43908       -0.69557
C         -7.23179        0.65977       -0.24882
Cl        -8.78729        0.76544        0.50668
C         -3.13848       -1.15501        0.74535
C         -3.47063       -2.50845        0.69876
H         -2.85688       -3.17984        0.09536
C         -3.89245       -0.27140        1.52048
H         -3.63557        0.78667        1.54712
C         -4.58477       -2.97659        1.38786
H         -4.86396       -4.03057        1.34598
C         -5.01400       -0.73502        2.19970
H         -5.63522       -0.04741        2.77524
C         -5.36252       -2.08250        2.12203
Cl        -6.78711       -2.64665        2.92932
C          1.67216       -0.11064        1.49963
C          2.76164        0.29798        2.26296
H          3.44173        1.05303        1.86776
C          0.78604       -1.07111        1.98522
H         -0.07000       -1.36400        1.37458
C          2.97042       -0.27583        3.51496
H          3.83267        0.04295        4.10695
C          1.01400       -1.63693        3.23616
H          0.32062       -2.39586        3.60906
C          2.10809       -1.25400        4.02459
C          2.32609       -1.85302        5.38381
H          3.36799       -1.73548        5.71393
H          2.08262       -2.92573        5.39557
H          1.68507       -1.36711        6.13828
C          3.16335       -2.29875       -0.75042
C          3.63624       -2.63082        0.51813
H          3.01322       -2.44550        1.39334
C          3.93982       -2.54616       -1.88270
H          3.54619       -2.28907       -2.86723
C          4.90474       -3.18678        0.65667
H          5.29004       -3.44390        1.64439
C          5.20895       -3.09985       -1.74642
H          5.83007       -3.29069       -2.62281
C          5.68977       -3.41003       -0.47387
Cl         7.27562       -4.08470       -0.29797
C          3.87979        1.13358       -0.92018
C          5.07305        0.55148       -0.49657
H          5.29859       -0.47890       -0.77257
C          3.57757        2.45281       -0.58217
H          2.63389        2.88855       -0.91280
C          5.95894        1.28452        0.28911
H          6.89153        0.83661        0.63530
C          4.46011        3.18718        0.20184
H          4.23171        4.21662        0.48042
C          5.64390        2.59547        0.64365
Cl         6.72730        3.50128        1.64833
