102
Cat503.ts34.5.log	Energy: -1920887.7484720
C         -1.90925       -2.80463       -2.21226
H         -1.85165       -3.84918       -1.89644
H         -2.92378       -2.39708       -2.24692
C         -0.92552       -2.30870       -3.10470
H         -0.09630       -2.94849       -3.41911
H         -1.22585       -1.58245       -3.86681
H         -0.31651       -0.87371       -2.40103
Rh        -0.54756       -1.64557       -1.00028
O         -2.95756        1.07914       -0.91332
C         -3.83523       -1.15553        0.05861
C         -1.99104        0.43151        1.50500
O          1.58273       -0.76975        1.28683
C          2.93791       -1.24254       -1.04356
C          1.50146        1.19249       -0.61613
P          1.36790       -0.60778       -0.37665
P         -2.25086       -0.26726       -0.17020
C         -0.23306       -3.09174        0.17777
O         -0.00537       -3.97036        0.88781
C         -2.35330        2.09877       -1.58373
C         -1.35075        1.90485       -2.53673
H         -0.96724        0.89978       -2.70832
C         -2.83640        3.38856       -1.35620
H         -3.63409        3.53349       -0.62503
C         -0.84909        2.99114       -3.24332
H         -0.06358        2.81850       -3.98375
C         -2.32618        4.46576       -2.07841
H         -2.73117        5.46622       -1.89854
C         -1.32214        4.29277       -3.03558
C         -0.75572        5.44866       -3.80785
H         -0.78242        5.25992       -4.89248
H          0.29540        5.62547       -3.52835
H         -1.31645        6.37470       -3.61484
C         -3.81412       -2.38457        0.73678
H         -2.86574       -2.78431        1.10500
C         -5.05389       -0.68160       -0.42360
H         -5.08405        0.27091       -0.95457
C         -4.97820       -3.10507        0.93896
H         -4.97143       -4.05925        1.46905
C         -6.23353       -1.40650       -0.23736
H         -7.16829       -1.00847       -0.63330
C         -6.20220       -2.62283        0.44992
O         -7.28216       -3.39609        0.68357
C         -8.52943       -2.96823        0.21695
H         -8.54549       -2.86760       -0.88301
H         -9.25724       -3.73461        0.51283
H         -8.82726       -2.00283        0.66363
C         -2.57205        1.64310        1.90901
H         -3.25885        2.15901        1.23680
C         -1.13501       -0.22446        2.38947
H         -0.65320       -1.15420        2.08521
C         -2.26451        2.19964        3.14064
H         -2.69529        3.15096        3.45945
C         -0.82745        0.31678        3.63642
H         -0.13556       -0.21730        4.28748
C         -1.37785        1.54682        4.01179
O         -1.11088        2.17468        5.17344
C         -0.19412        1.58912        6.05625
H          0.79958        1.46336        5.59067
H         -0.10416        2.26883        6.91313
H         -0.54157        0.60509        6.41704
C          2.73776       -0.52063        1.97016
C          3.01255        0.74929        2.47716
H          2.30796        1.56202        2.30039
C          3.63343       -1.56793        2.19773
H          3.40109       -2.55467        1.79280
C          4.18807        0.96376        3.19567
H          4.39783        1.96425        3.58460
C          4.80005       -1.33760        2.91709
H          5.49664       -2.16446        3.08222
C          5.10351       -0.06797        3.42718
C          6.36114        0.16390        4.21416
H          6.55303        1.23635        4.36016
H          7.23731       -0.27183        3.70975
H          6.29921       -0.30114        5.21204
C          4.17604       -0.61051       -0.81961
H          4.21936        0.33359       -0.27219
C          2.92612       -2.45307       -1.73844
H          1.96277       -2.94595       -1.90228
C          5.35155       -1.17544       -1.28140
H          6.31750       -0.69742       -1.10938
C          4.10246       -3.03283       -2.21027
H          4.05315       -3.97823       -2.75066
C          5.32613       -2.39287       -1.98115
O          6.51676       -2.86429       -2.38997
C          6.56255       -4.07699       -3.09040
H          5.99542       -4.02567       -4.03627
H          7.61850       -4.26759       -3.31952
H          6.17110       -4.91408       -2.48630
C          2.21772        1.76720       -1.67603
H          2.79584        1.13434       -2.35310
C          0.75335        2.03444        0.21282
H          0.17107        1.61139        1.03335
C          2.20131        3.13862       -1.88181
H          2.75820        3.59496       -2.70235
C          0.72536        3.41070        0.01494
H          0.11655        4.02644        0.67625
C          1.45221        3.97201       -1.04046
O          1.48244        5.28877       -1.32215
C          0.72346        6.16313       -0.53068
H          1.05804        6.15323        0.52133
H          0.87436        7.16907       -0.94220
H         -0.35051        5.91365       -0.56951
