92
Cat551.ts34.5.log	Energy: -2056381.9651800
C          1.06032        1.04902       -3.57851
H          1.19992        2.10250       -3.83364
H          1.98901        0.46687       -3.58658
C         -0.14840        0.40457       -3.99235
H         -0.93636        0.99681       -4.46535
H         -0.08650       -0.61310       -4.39469
H         -0.60698       -0.40962       -2.66896
Rh        -0.15021        0.89993       -1.81884
O          1.06763       -0.36713        1.03036
C          1.96829       -1.92538       -1.12589
C          3.13717        0.62344       -0.52196
O         -2.69966        1.88544        0.18211
C         -3.57436        0.26271       -1.68908
C         -2.18993       -0.71007        0.65911
P         -2.07224        0.58003       -0.66663
P          1.47480       -0.18605       -0.61527
C         -0.05912        2.78389       -1.51625
O         -0.00429        3.92025       -1.36868
C          1.62201       -1.23784        1.92072
C          0.99866       -2.46974        2.14560
H          0.09534       -2.72265        1.58553
C          2.75906       -0.88915        2.65502
H          3.22550        0.08471        2.50041
C          1.52605       -3.36229        3.07533
H          1.05607       -4.32893        3.26450
C          3.29201       -1.77974        3.58295
H          4.18179       -1.53015        4.16353
C          2.67293       -3.00920        3.77795
F          3.18237       -3.86149        4.66458
H          1.30696       -2.60194       -0.56373
H          1.63355       -1.97277       -2.17419
C          3.40282       -2.35015       -1.02841
C          4.27512       -2.11995       -2.10158
H          3.89103       -1.66259       -3.01846
C          3.92087       -2.96687        0.11766
H          3.26371       -3.18145        0.96129
C          5.62117       -2.46722       -2.03455
H          6.30173       -2.28996       -2.86916
C          5.26410       -3.32215        0.20226
H          5.66896       -3.80430        1.09384
C          6.10214       -3.06121       -0.87435
F          7.38884       -3.39551       -0.79787
H          3.73089        0.12562        0.26157
H          3.62959        0.36934       -1.47249
C          3.07912        2.11060       -0.35912
C          3.45207        2.95057       -1.41455
H          3.80678        2.51082       -2.35023
C          2.61478        2.70079        0.82222
H          2.28801        2.06547        1.64736
C          3.37664        4.33533       -1.29969
H          3.66226        4.99561       -2.12023
C          2.53075        4.08310        0.95579
H          2.15103        4.55172        1.86507
C          2.91321        4.88471       -0.11170
F          2.83123        6.20839        0.00524
C         -2.00699        2.68957        1.03615
C         -0.90299        2.25587        1.77257
H         -0.50217        1.24985        1.64927
C         -2.46378        4.00318        1.17410
H         -3.31673        4.32762        0.57580
C         -0.27516        3.13064        2.65555
H          0.58195        2.80803        3.24911
C         -1.82758        4.88138        2.04406
H         -2.16105        5.91467        2.15349
C         -0.73506        4.43262        2.77633
F         -0.09979        5.27419        3.59711
H         -3.71418        1.19876       -2.25314
H         -3.26703       -0.50114       -2.41872
C         -4.81605       -0.15606       -0.96031
C         -5.28175       -1.47277       -1.05553
H         -4.74008       -2.19174       -1.67529
C         -5.52690        0.74362       -0.15326
H         -5.17476        1.77225       -0.06194
C         -6.41729       -1.89137       -0.36695
H         -6.78334       -2.91704       -0.43822
C         -6.66134        0.34034        0.54451
H         -7.22058        1.03332        1.17572
C         -7.09229       -0.97639        0.42984
F         -8.17806       -1.36722        1.09634
H         -1.27893       -0.58432        1.26503
H         -3.05020       -0.42518        1.28279
C         -2.31915       -2.14478        0.23027
C         -3.17903       -2.99904        0.93399
H         -3.77507       -2.59838        1.75752
C         -1.58396       -2.68401       -0.83256
H         -0.91492       -2.03407       -1.40043
C         -3.30420       -4.34294        0.59673
H         -3.97563       -5.00869        1.14205
C         -1.70117       -4.02637       -1.18934
H         -1.13216       -4.44769       -2.02031
C         -2.56142       -4.84247       -0.46687
F         -2.67839       -6.12681       -0.79845
