92
Cat544.ts34.5.log	Energy: -1807399.7629199
C         -1.33818       -2.99655       -2.93309
H         -0.95265       -4.01705       -2.86873
H         -2.42142       -2.92306       -2.80093
C         -0.68413       -2.08216       -3.80940
H          0.22009       -2.39212       -4.34007
H         -1.29576       -1.37793       -4.38305
H         -0.44735       -0.69372       -2.89678
Rh        -0.15119       -1.72261       -1.67721
O         -1.80923        0.96532       -0.63164
C         -3.58105       -1.21630       -0.88360
C         -1.80315       -0.88107        1.39811
O          1.53455       -0.11607        0.61628
C          3.21483       -0.93786       -1.50565
C          1.42172        1.42284       -1.66415
P          1.51408       -0.32921       -1.05267
P         -1.84109       -0.71905       -0.45396
C          0.74044       -3.19886       -0.89861
O          1.35057       -4.06246       -0.43504
C         -2.57158        1.91821       -0.01362
C         -2.37646        2.26222        1.32720
H         -1.61725        1.74926        1.91676
C         -3.49381        2.63373       -0.78014
H         -3.61219        2.37574       -1.83237
C         -3.14064        3.27133        1.91067
H         -3.00815        3.54789        2.95816
C         -4.25766        3.64123       -0.20470
H         -4.99742        4.19424       -0.78558
C         -4.08101        3.94119        1.14101
F         -4.82179        4.89998        1.69911
H         -3.67644       -2.20278       -0.39637
H         -3.54665       -1.42034       -1.96349
C         -4.75775       -0.33176       -0.59376
C         -5.48175        0.20975       -1.66416
H         -5.17539       -0.02929       -2.68657
C         -5.18251       -0.02357        0.70601
H         -4.65897       -0.44201        1.56685
C         -6.57515        1.04526       -1.45016
H         -7.12218        1.45185       -2.30440
C         -6.26599        0.82269        0.92479
H         -6.56675        1.05907        1.94808
C         -6.96660        1.36429       -0.15200
H         -7.81707        2.02725        0.02222
H         -2.63325       -0.31632        1.84376
H         -0.85793       -0.39256        1.68019
C         -1.80109       -2.30852        1.85109
C         -0.58675       -2.98099        2.02644
H          0.34325       -2.43415        1.86339
C         -2.99086       -3.01114        2.08226
H         -3.95365       -2.50486        1.97317
C         -0.55731       -4.32019        2.40400
H          0.40310       -4.82648        2.52373
C         -2.96529       -4.35164        2.46263
H         -3.90415       -4.88155        2.64065
C         -1.74792       -5.01255        2.61866
H         -1.72757       -6.06442        2.91312
C          2.57504       -0.25428        1.48661
C          3.10001        0.87697        2.11504
H          2.69738        1.85897        1.86769
C          3.07191       -1.52335        1.79934
H          2.64286       -2.40794        1.32372
C          4.13527        0.74312        3.03465
H          4.56396        1.61483        3.53222
C          4.11508       -1.65943        2.71354
H          4.52241       -2.63935        2.96807
C          4.63721       -0.52246        3.31806
F          5.63417       -0.64856        4.19390
H          3.01312       -1.40341       -2.48231
H          3.41992       -1.77260       -0.81821
C          4.38086       -0.00309       -1.61091
C          5.22118        0.26457       -0.52329
H          5.03949       -0.22497        0.43412
C          4.66334        0.61527       -2.83707
H          4.03876        0.39240       -3.70707
C          6.28711        1.15145       -0.64944
H          6.92486        1.35012        0.21512
C          5.73113        1.50122       -2.96667
H          5.93122        1.97303       -3.93160
C          6.54280        1.78026       -1.86776
H          7.37949        2.47602       -1.96424
H          0.35692        1.54910       -1.90402
H          1.98629        1.44054       -2.60971
C          1.86622        2.50370       -0.72377
C          3.16053        3.03441       -0.73933
H          3.88916        2.67093       -1.46435
C          0.94994        3.00710        0.20879
H         -0.06450        2.60967        0.21868
C          3.53209        4.02681        0.16664
H          4.55025        4.42241        0.13880
C          1.31682        4.00168        1.11102
H          0.58065        4.38030        1.82456
C          2.61561        4.51237        1.09831
H          2.90870        5.29193        1.80563
