98
Cat508.ts34.5.log	Energy: -1732222.4631926
C         -0.96385       -3.92159       -0.38664
H         -0.62454       -4.63620        0.36743
H         -2.04984       -3.85069       -0.50225
C         -0.12885       -3.68551       -1.51176
H          0.85454       -4.16108       -1.56957
H         -0.60164       -3.53941       -2.48924
H          0.02379       -2.06253       -1.62438
Rh         0.00972       -2.03669        0.00185
O         -1.97498        0.35849       -1.37779
C         -3.46133       -1.58017       -0.22188
C         -2.19253        0.43294        1.35917
O          1.99231        0.23902        1.28356
C          3.44593       -1.64586       -0.00618
C          2.14118        0.44223       -1.45835
P          1.86074       -0.73832       -0.09510
P         -1.87022       -0.69788       -0.04237
C          0.36626       -2.49305        1.80450
O          0.57029       -2.74806        2.90776
C         -2.62223        1.56047       -1.36156
C         -3.93987        1.67250       -1.80086
H         -4.47084        0.78041       -2.13573
C         -1.94005        2.70003       -0.92697
H         -0.90830        2.59614       -0.58748
C         -4.56746        2.91775       -1.79181
H         -5.60257        2.99408       -2.13642
C         -2.57850        3.93355       -0.92187
H         -2.03388        4.81479       -0.57107
C         -3.90678        4.06750       -1.34949
C         -4.58937        5.40461       -1.32463
H         -4.03284        6.15141       -1.91293
H         -4.66467        5.79493       -0.29681
H         -5.60724        5.34465       -1.73479
C         -3.95139       -1.87671       -1.49999
H         -3.44957       -1.46351       -2.37819
C         -4.08939       -2.13628        0.89707
H         -3.69666       -1.92168        1.89581
C         -5.07216       -2.69068       -1.64002
H         -5.46150       -2.91302       -2.63682
C         -5.21305       -2.96020        0.76932
C         -5.85871       -3.55790        1.98584
H         -5.93244       -2.82425        2.80241
H         -6.86928       -3.93010        1.76594
H         -5.26705       -4.40683        2.36644
C         -5.70026       -3.22458       -0.51588
H         -6.58087       -3.86149       -0.63614
C         -3.44831        1.01116        1.59851
H         -4.30596        0.74249        0.97907
C         -1.10641        0.78708        2.16229
H         -0.13159        0.33139        1.96843
C         -3.59197        1.93575        2.62597
H         -4.56721        2.39150        2.81383
C         -1.23864        1.71762        3.20163
C         -0.04886        2.08649        4.03896
H          0.48541        1.18853        4.38396
H          0.67517        2.67894        3.45609
H         -0.34030        2.67596        4.91970
C         -2.49676        2.28636        3.41767
H         -2.62454        3.01322        4.22509
C          2.67255        1.42294        1.33688
C          2.02305        2.60159        0.96262
H          0.99200        2.54466        0.61003
C          3.99029        1.47265        1.78690
H          4.49437        0.54861        2.07287
C          2.69461        3.81594        1.03009
H          2.17660        4.72957        0.72514
C          4.65079        2.69882        1.84999
H          5.68628        2.72723        2.20062
C          4.02243        3.88960        1.47249
C          4.73304        5.20965        1.55470
H          4.35647        5.81372        2.39678
H          4.58478        5.80349        0.63973
H          5.81423        5.07655        1.70122
C          3.95316       -2.03241        1.24049
H          3.44741       -1.71344        2.15469
C          4.08031       -2.08543       -1.17206
H          3.68155       -1.79003       -2.14726
C          5.09410       -2.82571        1.30436
H          5.49634       -3.11987        2.27698
C          5.22369       -2.89060       -1.12010
C          5.87524       -3.37115       -2.38461
H          6.93065       -3.63225       -2.22158
H          5.36867       -4.27203       -2.76936
H          5.82772       -2.60910       -3.17638
C          5.72589       -3.24904        0.13557
H          6.62346       -3.87050        0.19793
C          3.38811        1.05071       -1.66925
H          4.24976        0.77067       -1.06061
C          1.04966        0.81297       -2.24638
H          0.07936        0.34132       -2.07208
C          3.51842        2.02004       -2.65641
H          4.48673        2.49822       -2.82237
C          1.16895        1.79058       -3.24326
C         -0.02773        2.19382       -4.05450
H         -0.64168        1.32114       -4.32042
H         -0.67949        2.87209       -3.47930
H          0.26493        2.71023       -4.97979
C          2.41882        2.38663       -3.43394
H          2.53585        3.15015       -4.20853
