96
Cat598.ts34.5.log	Energy: -2448313.1779588
C         -0.92066       -4.37497       -1.44769
H         -0.65410       -5.23205       -0.82469
H         -1.99381       -4.25120       -1.61820
C          0.00187       -3.94418       -2.43694
H          0.98525       -4.41594       -2.50846
H         -0.38522       -3.58694       -3.39698
H          0.13706       -2.30269       -2.21084
Rh         0.03006       -2.62219       -0.62639
O         -2.35730       -0.36669       -1.58434
O         -3.21296       -2.05995        0.12220
O         -1.59778       -0.18607        0.84808
O          2.27414       -0.97840        1.12937
O          3.04758       -1.42524       -1.27783
O          1.34110        0.40314       -0.81126
P          1.67901       -1.16151       -0.39885
P         -1.80255       -1.32248       -0.34200
C          0.37123       -3.48069        1.04621
O          0.56585       -3.96084        2.06871
C         -2.65286        0.97056       -1.52997
C         -3.97997        1.39716       -1.55517
H         -4.78461        0.66316       -1.60592
C         -1.61190        1.89717       -1.47301
H         -0.58395        1.53479       -1.46594
C         -4.26549        2.75885       -1.49714
H         -5.29919        3.10767       -1.50785
C         -1.89441        3.25720       -1.40279
H         -1.08595        3.98693       -1.33608
C         -3.22348        3.68145       -1.40881
Cl        -3.58425        5.37520       -1.30685
C         -4.49316       -1.71165       -0.23695
C         -4.96100       -2.03312       -1.51086
H         -4.29380       -2.53399       -2.21437
C         -5.32989       -1.06802        0.67216
H         -4.95982       -0.82314        1.66774
C         -6.25752       -1.68612       -1.87832
H         -6.60974       -1.93080       -2.88417
C         -6.62567       -0.73071        0.28917
H         -7.27065       -0.21606        1.00664
C         -7.11450       -1.02505       -0.98892
C         -8.52042       -0.67631       -1.38314
H         -8.59417       -0.44819       -2.45649
H         -8.89230        0.19335       -0.82241
H         -9.20765       -1.51477       -1.18001
C         -2.44378        0.16522        1.86896
C         -2.64328       -0.70941        2.93664
H         -2.14547       -1.68067        2.93364
C         -3.05652        1.41570        1.85802
H         -2.88284        2.09297        1.02138
C         -3.49003       -0.33750        3.97641
H         -3.65341       -1.03334        4.80391
C         -3.89646        1.77269        2.90985
H         -4.38338        2.75150        2.88884
C         -4.13621        0.90594        3.98255
C         -5.02708        1.30714        5.12243
H         -5.58618        0.44720        5.51968
H         -5.75225        2.07469        4.81630
H         -4.43875        1.72559        5.95624
C          3.58768       -0.85906        1.50280
C          4.07998        0.37403        1.92754
H          3.42110        1.24253        1.94231
C          4.41140       -1.98481        1.49109
H          4.00319       -2.94306        1.16605
C          5.41126        0.48694        2.31695
H          5.81160        1.44773        2.64370
C          5.74370       -1.87329        1.87648
H          6.40160       -2.74347        1.86333
C          6.24003       -0.63379        2.28074
Cl         7.90264       -0.48712        2.74766
C          3.78666       -0.49947       -1.97723
C          5.03610       -0.10687       -1.50505
H          5.41384       -0.52042       -0.56987
C          3.29292        0.01736       -3.17418
H          2.31045       -0.29862       -3.52886
C          5.77840        0.82342       -2.22824
H          6.75418        1.13371       -1.84476
C          4.04601        0.94917       -3.88195
H          3.64577        1.36045       -4.81269
C          5.30011        1.37338       -3.42323
C          6.11720        2.35909       -4.20697
H          6.80769        2.91659       -3.55793
H          5.47945        3.08502       -4.73222
H          6.72683        1.84802       -4.97091
C          1.67073        1.54669       -0.11589
C          2.65681        2.39719       -0.60711
H          3.19400        2.13592       -1.51900
C          0.96816        1.87018        1.04451
H          0.18918        1.19421        1.39725
C          2.95259        3.56777        0.08888
H          3.73542        4.22738       -0.29523
C          1.27991        3.04195        1.72624
H          0.72977        3.28485        2.63945
C          2.27843        3.91157        1.26614
C          2.58724        5.18556        1.99768
H          3.57898        5.57553        1.72804
H          2.56121        5.04071        3.08794
H          1.84854        5.96829        1.75722
