90
Cat572.ts34.5.log	Energy: -2975662.4734286
C         -1.34645       -3.81742       -1.42922
H         -1.61539       -4.11099       -2.44654
H         -0.51217       -4.37600       -0.99709
C         -2.35547       -3.30785       -0.57639
H         -3.36840       -3.14493       -0.95393
H         -2.31317       -3.54572        0.49257
H         -1.70750       -1.90356        0.05148
Rh        -1.07110       -1.66481       -1.41040
O          1.33482       -2.24133        0.96079
O          2.23898       -2.29518       -1.35107
O          1.58447       -0.02808       -0.30663
O         -1.47691        1.49962       -2.28191
O         -3.44522        0.70318       -0.97546
O         -1.24616        1.06716        0.27239
P         -1.80651        0.40161       -1.12893
P          1.00455       -1.56514       -0.53918
C         -0.92317       -1.57598       -3.32009
O         -0.81274       -1.51447       -4.45779
C          0.35977       -2.46241        1.89587
C         -0.43919       -1.42009        2.36588
H         -0.31452       -0.41600        1.95661
C          0.20534       -3.77651        2.36515
C          1.08217       -4.86886        1.83562
H          1.09081       -4.87836        0.73518
H          2.12833       -4.72459        2.15050
H          0.75006       -5.85245        2.19360
C         -1.41156       -1.67985        3.33068
H         -2.03054       -0.86150        3.70661
C         -0.78042       -4.00720        3.32857
H         -0.91900       -5.02434        3.70473
C         -1.58564       -2.97507        3.81137
H         -2.34603       -3.18574        4.56665
C          3.58131       -2.03512       -1.23206
C          4.26517       -2.23686       -0.03249
H          3.72724       -2.62676        0.83144
C          4.25037       -1.55288       -2.35532
H          3.69455       -1.42415       -3.28585
C          5.60718       -1.88473        0.06112
H          6.14651       -1.99849        1.00249
C          5.59696       -1.21421       -2.26818
H          6.13018       -0.81869       -3.13408
C          6.26256       -1.35980       -1.05201
Cl         7.91689       -0.86499       -0.91613
C          2.68919        0.42495        0.36886
C          3.67336        1.09525       -0.35821
H          3.54956        1.20764       -1.43578
C          2.81137        0.28308        1.75162
H          2.03182       -0.21940        2.32309
C          4.81103        1.57057        0.28173
H          5.60298        2.06381       -0.28354
C          3.94918        0.76255        2.39549
H          4.06392        0.64475        3.47412
C          4.95062        1.39034        1.65795
Cl         6.38182        1.95143        2.45536
C         -1.67563        2.86772       -2.21420
C         -2.94876        3.39201       -2.41275
H         -3.77454        2.70970       -2.61547
C         -0.55992        3.67903       -1.96942
C          0.80799        3.08378       -1.84123
H          1.50830        3.80100       -1.39281
H          0.80623        2.16913       -1.23349
H          1.19721        2.79790       -2.83275
C         -3.14123        4.76750       -2.31453
H         -4.13922        5.18752       -2.45875
C         -0.78796        5.05425       -1.86325
H          0.05860        5.71018       -1.64453
C         -2.06101        5.59810       -2.02390
H         -2.20651        6.67613       -1.92676
C         -4.24662       -0.21409       -0.35012
C         -5.28331       -0.79980       -1.07492
H         -5.43114       -0.50981       -2.11644
C         -4.02353       -0.57634        0.97866
H         -3.20413       -0.11831        1.53371
C         -6.10032       -1.75106       -0.47193
H         -6.91406       -2.21926       -1.02786
C         -4.82880       -1.53838        1.58041
H         -4.64864       -1.84418        2.61197
C         -5.86357       -2.12271        0.85221
Cl        -6.86240       -3.32619        1.59640
C         -1.32742        2.32350        0.82012
C         -2.51289        3.05705        0.86323
H         -3.42463        2.64755        0.43034
C         -0.15728        2.83354        1.38202
H          0.75465        2.23531        1.34983
C         -2.50898        4.33080        1.42173
H         -3.42208        4.92725        1.43757
C         -0.15674        4.10294        1.94979
H          0.75609        4.51732        2.38032
C         -1.33138        4.85296        1.95391
Cl        -1.32880        6.45116        2.62373
