86
Cat563.ts34.5.log	Energy: -2786904.6268127
C         -1.53989       -3.09672       -1.62558
H         -1.37842       -4.05071       -1.11722
H         -2.58969       -2.83996       -1.79455
C         -0.55824       -2.65146       -2.54917
H          0.36825       -3.21791       -2.68053
H         -0.89296       -2.15006       -3.46392
H         -0.24393       -1.10546       -2.12646
Rh        -0.41269       -1.58026       -0.58253
O         -2.45556        1.24618       -1.20578
C         -3.79963       -0.84905       -0.50121
C         -2.40448        0.59955        1.43816
O          1.68427       -0.16414        1.46257
C          3.06866       -1.66190       -0.41674
C          2.09253        0.93009       -1.04315
P          1.59317       -0.59109       -0.15879
P         -2.15119       -0.10176       -0.23925
C         -0.35239       -2.64281        0.97958
O         -0.35507       -3.29151        1.93001
C         -1.64800        2.32837       -1.36900
C         -0.74274        2.76096       -0.39880
H         -0.62343        2.19541        0.52524
C         -1.80895        3.03676       -2.57394
C         -2.78128        2.54391       -3.60098
H         -2.74756        3.16283       -4.50781
H         -2.56958        1.50007       -3.88223
H         -3.81233        2.56135       -3.21198
C         -0.00526        3.92424       -0.61129
H          0.69883        4.25984        0.15315
C         -1.05314        4.19556       -2.75892
H         -1.17029        4.75443       -3.69166
C         -0.15904        4.64810       -1.78885
H          0.42839        5.55130       -1.96406
C         -4.61572       -0.52333       -1.58723
H         -4.30649        0.26397       -2.27575
C         -4.20562       -1.86233        0.37726
H         -3.57016       -2.13689        1.22433
C         -5.82363       -1.18979       -1.79067
H         -6.46592       -0.93673       -2.63585
C         -5.40890       -2.52939        0.18688
H         -5.73025       -3.31382        0.87378
C         -6.21397       -2.18804       -0.90207
Cl        -7.71261       -3.01942       -1.14951
C         -1.52171        0.28143        2.47135
H         -0.66261       -0.36168        2.26773
C         -3.47404        1.46941        1.68857
H         -4.16394        1.72628        0.88054
C         -1.70846        0.80633        3.74927
H         -1.02559        0.55610        4.56285
C         -3.66146        2.01186        2.95310
H         -4.48852        2.69372        3.15716
C         -2.77608        1.67082        3.97930
Cl        -3.00836        2.33983        5.55797
C          2.75523        0.15629        2.25567
C          3.75422       -0.77649        2.53617
H          3.69771       -1.77209        2.09756
C          2.76062        1.43015        2.85329
C          1.64944        2.39893        2.59077
H          1.53430        2.59012        1.51395
H          0.68362        2.00540        2.94185
H          1.83475        3.35647        3.09563
C          4.80656       -0.43217        3.38185
H          5.58860       -1.16507        3.59259
C          3.82699        1.74443        3.70054
H          3.84741        2.73191        4.16969
C          4.84981        0.83336        3.96007
H          5.67142        1.10932        4.62459
C          2.91033       -3.04216       -0.23137
H          1.91778       -3.43446        0.00379
C          4.33443       -1.17736       -0.77069
H          4.48781       -0.11291       -0.95165
C          3.98734       -3.91338       -0.34758
H          3.86049       -4.98609       -0.19350
C          5.41962       -2.03827       -0.90244
H          6.40443       -1.65704       -1.17673
C          5.24261       -3.40275       -0.67946
Cl         6.58869       -4.47630       -0.83383
C          3.05545        1.81887       -0.54485
H          3.54139        1.63270        0.41497
C          1.50130        1.20605       -2.28052
H          0.72470        0.53971       -2.66213
C          3.41145        2.95786       -1.26124
H          4.14984        3.65722       -0.86613
C          1.86245        2.32841       -3.01582
H          1.38735        2.54674       -3.97244
C          2.81151        3.20415       -2.49450
Cl         3.22282        4.63681       -3.37281
