90
Cat647.ts34.5.log	Energy: -1588547.8787673
C          1.47099       -1.54962       -2.90963
H          1.05069       -1.43145       -3.91171
H          2.52200       -1.26205       -2.81650
C          0.93872       -2.56320       -2.07669
H          0.11457       -3.18923       -2.43056
H          1.61366       -3.08702       -1.39141
H          0.42823       -1.85033       -0.60259
Rh         0.18747       -0.52894       -1.50665
C          2.15946       -0.02217        1.58497
C          3.54523        0.57926       -0.92285
C          1.56432        2.36659        0.07729
C         -2.73257        1.24315       -0.67238
C         -2.89934       -1.61528       -0.20934
C         -1.36939        0.03182        1.57902
P         -1.68522       -0.23852       -0.20961
P          1.86257        0.56142       -0.19184
C         -0.50467        0.48688       -2.92738
O         -0.97128        1.06801       -3.81014
H          2.31886        0.87066        2.20184
H          1.20094       -0.45098        1.89973
C          3.29041       -0.98047        1.80123
C          4.59278       -0.47724        1.90863
H          4.74804        0.60261        1.83659
C          3.08728       -2.37360        1.88385
C          1.71057       -2.97182        1.85128
H          1.11179       -2.59004        1.01115
H          1.15280       -2.72487        2.76918
H          1.75714       -4.06671        1.77142
C          5.68987       -1.31576        2.07178
H          6.69478       -0.89371        2.14319
C          4.20242       -3.20627        2.03703
H          4.04652       -4.28723        2.09511
C          5.49419       -2.69328        2.12502
H          6.34423       -3.36983        2.24174
C          4.19121       -0.65001       -1.13507
C          4.16912        1.74859       -1.37591
C          6.05319        0.46862       -2.19054
C          5.41244        1.69190       -2.00451
C          5.43672       -0.70323       -1.75311
H          3.72446       -1.57705       -0.79382
H          5.92746       -1.66935       -1.89219
H          7.02928        0.42729       -2.67981
H          5.88349        2.61564       -2.34982
H          3.68119        2.71535       -1.23750
C          2.22891        3.11581        1.05780
C          0.63773        3.01847       -0.74270
C          1.00420        5.10096        0.42418
C          0.35806        4.37432       -0.57385
C          1.94751        4.46873        1.23479
H          2.98543        2.64824        1.69237
H          2.47211        5.03422        2.00894
H          0.78012        6.16087        0.56678
H         -0.37210        4.86148       -1.22472
H          0.12992        2.43797       -1.51591
H         -2.11867        2.11856       -0.41149
H         -2.77688        1.21738       -1.76875
C         -4.09797        1.32664       -0.06402
C         -4.26296        1.87091        1.21612
H         -3.39293        2.27122        1.73975
C         -5.22680        0.82602       -0.74837
C         -5.11797        0.25126       -2.13045
H         -4.47750       -0.64392       -2.14609
H         -4.68279        0.97258       -2.84078
H         -6.10635       -0.03849       -2.51188
C         -5.50712        1.89780        1.83930
H         -5.60623        2.32188        2.84125
C         -6.47080        0.86819       -0.10979
H         -7.34479        0.47748       -0.63807
C         -6.61850        1.38626        1.17401
H         -7.60270        1.39964        1.64850
C         -2.79523       -2.57893       -1.21800
C         -3.95827       -1.69455        0.70683
C         -4.78829       -3.67217       -0.40892
C         -4.89611       -2.71885        0.60405
C         -3.73501       -3.60324       -1.31940
H         -1.96619       -2.49406       -1.92630
H         -3.64481       -4.34844       -2.11338
H         -5.52808       -4.47287       -0.48652
H         -5.72225       -2.76630        1.31738
H         -4.05731       -0.95058        1.49989
C         -0.97237        1.29432        2.04192
C         -1.35532       -1.04447        2.47514
C         -0.58206        0.40172        4.25287
C         -0.96748       -0.85953        3.80142
C         -0.58547        1.47817        3.36679
H         -0.93678        2.14703        1.36169
H         -0.27434        2.47045        3.70194
H         -0.27502        0.54395        5.29151
H         -0.96411       -1.71114        4.48627
H         -1.64362       -2.04031        2.13115
