100
Cat627.ts34.5.log	Energy: -1826596.0500408
C         -1.01527       -2.73383       -3.18549
H         -0.86682       -3.80613       -3.03613
H         -2.04018       -2.46084       -3.45662
C          0.06461       -1.97071       -3.72583
H          1.03290       -2.44972       -3.89575
H         -0.16450       -1.19427       -4.46417
H          0.14965       -0.65453       -2.75562
Rh        -0.14816       -1.67769       -1.52887
C         -3.19894        0.11300       -2.14287
O         -3.13102       -1.38852        0.02192
O         -1.70012        0.78295        0.08879
C          1.54160       -0.76041        1.41072
O          3.03692       -1.12877       -0.79119
O          1.56170        1.00202       -0.75751
P          1.49387       -0.61732       -0.43703
P         -2.00758       -0.53875       -0.88911
C          0.10868       -3.26667       -0.50723
O          0.29655       -4.20277        0.13307
H         -3.31905       -0.74692       -2.82358
H         -2.61267        0.86252       -2.69859
C         -4.53803        0.66117       -1.74130
C         -4.81713        2.02444       -1.88835
H         -4.04914        2.68877       -2.29127
C         -5.54036       -0.17363       -1.22981
H         -5.33998       -1.23947       -1.11246
C         -6.04844        2.54880       -1.50547
H         -6.23838        3.61888       -1.61885
C         -6.77242        0.34932       -0.84700
H         -7.53923       -0.31666       -0.44341
C         -7.03081        1.71349       -0.97700
H         -7.99750        2.12261       -0.67350
C         -2.71860       -2.29878        0.95582
C         -3.13849       -3.62153        0.83345
H         -3.78046       -3.89633       -0.00549
C         -1.89384       -1.92480        2.01692
H         -1.57863       -0.88449        2.11125
C         -2.71905       -4.56683        1.76344
H         -3.04542       -5.60458        1.65327
C         -1.47535       -2.88541        2.93420
H         -0.82002       -2.58527        3.75689
C         -1.86851       -4.22308        2.82124
C         -1.36102       -5.26468        3.77476
H         -2.10843       -6.05225        3.95045
H         -1.08992       -4.82690        4.74626
H         -0.45883       -5.75335        3.37007
C         -2.59444        1.74591        0.49008
C         -3.69899        1.43712        1.28638
H         -3.89099        0.40211        1.56800
C         -2.34297        3.06575        0.12355
H         -1.46807        3.28828       -0.49036
C         -4.56494        2.45275        1.67116
H         -5.44289        2.19905        2.27128
C         -3.21554        4.07291        0.53114
H         -3.01469        5.10572        0.23298
C         -4.34750        3.78594        1.29869
C         -5.32365        4.85628        1.68944
H         -5.55825        4.81787        2.76443
H         -6.27597        4.73260        1.14697
H         -4.93745        5.85983        1.46171
H          1.01545       -1.70671        1.60599
H          0.89163        0.04119        1.79140
C          2.89157       -0.75965        2.06116
C          3.45997        0.40444        2.59010
H          2.90546        1.34397        2.55471
C          3.62272       -1.95329        2.12905
H          3.19015       -2.86880        1.71716
C          4.73271        0.37798        3.15766
H          5.16009        1.29959        3.55999
C          4.89171       -1.98198        2.70067
H          5.44588       -2.92277        2.74281
C          5.45521       -0.81255        3.21291
H          6.45272       -0.83190        3.65845
C          4.03763       -0.41048       -1.37804
C          5.23489       -0.23949       -0.68409
H          5.33228       -0.66246        0.31687
C          3.88121        0.13905       -2.65095
H          2.93770        0.00328       -3.18244
C          6.26644        0.49113       -1.26635
H          7.19820        0.62811       -0.71033
C          4.92042        0.87564       -3.21300
H          4.78442        1.31557       -4.20495
C          6.13102        1.06735       -2.53568
C          7.25703        1.83731       -3.16321
H          7.88861        2.31961       -2.40288
H          6.88357        2.61813       -3.84177
H          7.90949        1.17436       -3.75620
C          1.96503        2.02581        0.06252
C          3.23295        2.58785       -0.08046
H          3.91989        2.19152       -0.82801
C          1.07273        2.54058        1.00198
H          0.07555        2.10638        1.07700
C          3.60932        3.63924        0.74939
H          4.61119        4.06386        0.64035
C          1.46683        3.59366        1.82434
H          0.75997        3.98335        2.56198
C          2.74314        4.15831        1.72083
C          3.16018        5.30643        2.59366
H          4.22059        5.23257        2.87716
H          2.56265        5.35005        3.51539
H          3.03016        6.26918        2.07147
