104
Cat612.ts34.5.log	Energy: -1452742.8428769
C         -0.74373       -1.02765       -3.31413
H         -0.22302       -1.91723       -3.67891
H         -1.83161       -1.07043       -3.44118
C         -0.08799        0.23417       -3.44521
H          0.93323        0.27321       -3.83473
H         -0.68664        1.10375       -3.73951
H         -0.23394        0.94033       -1.96795
Rh        -0.00773       -0.55031       -1.35828
C         -3.29575       -1.81634       -0.57224
C         -2.46962        0.21345        1.27428
C         -3.20011        0.90943       -1.41721
C          1.38438        0.24188        1.87661
C          3.27318       -0.06185       -0.24721
C          1.59309        2.29165       -0.15257
P          1.52363        0.45067        0.02859
P         -2.18176       -0.32343       -0.47603
C          0.81388       -2.23395       -1.15776
O          1.36495       -3.24558       -1.08546
H         -3.39339       -2.03949       -1.64631
H         -4.29377       -1.54535       -0.19422
C         -2.76627       -3.00822        0.16212
C         -3.11212       -3.24233        1.49928
H         -3.79275       -2.55298        2.00666
C         -1.89663       -3.90631       -0.46777
H         -1.61172       -3.72951       -1.50697
C         -2.61510       -4.35018        2.18305
H         -2.90254       -4.51983        3.22354
C         -1.39666       -5.01338        0.21221
H         -0.71417       -5.69647       -0.29820
C         -1.76019       -5.24347        1.53862
H         -1.37749       -6.11810        2.07047
H         -3.53234        0.09544        1.54780
H         -1.90454       -0.49264        1.90554
C         -2.00004        1.63950        1.52179
H         -1.02823        1.78212        1.01942
H         -2.68747        2.35042        1.03164
C         -1.86335        2.00838        2.99194
H         -1.22659        1.26102        3.50002
H         -2.84922        1.93942        3.48600
C         -1.27517        3.39599        3.20790
H         -0.29037        3.44762        2.70835
H         -1.90725        4.14246        2.69476
C         -1.12351        3.76982        4.67313
H         -0.69147        4.77469        4.79454
H         -0.46648        3.05878        5.19936
H         -2.09633        3.76119        5.19046
H         -2.63828        1.85627       -1.34455
H         -3.12307        0.61064       -2.47728
C         -4.65562        1.12471       -1.03116
H         -5.22721        0.19108       -1.16820
H         -4.72943        1.36801        0.04351
C         -5.32377        2.23355       -1.83435
H         -5.24972        1.99884       -2.91193
H         -4.75924        3.17387       -1.69592
C         -6.78304        2.46136       -1.46536
H         -7.34215        1.51906       -1.60474
H         -6.85119        2.69038       -0.38687
C         -7.44341        3.57141       -2.26688
H         -8.49595        3.71168       -1.97772
H         -7.42165        3.35160       -3.34645
H         -6.92662        4.53327       -2.11816
H          0.34415        0.48224        2.13382
H          2.03013        0.98489        2.36848
C          1.74813       -1.13677        2.33797
C          2.99992       -1.37592        2.91980
H          3.69103       -0.54030        3.06346
C          0.87434       -2.21765        2.16534
H         -0.09922       -2.06146        1.69433
C          3.37368       -2.65723        3.31731
H          4.35452       -2.82096        3.77061
C          1.24793       -3.49999        2.56067
H          0.55109       -4.32484        2.40642
C          2.49677       -3.72545        3.13635
H          2.78661       -4.73317        3.44352
H          3.93307        0.44880        0.47534
H          3.30903       -1.13574       -0.00020
C          3.74052        0.16198       -1.67670
H          2.99900       -0.29017       -2.35862
H          3.74709        1.24265       -1.90856
C          5.11958       -0.41828       -1.95514
H          5.10652       -1.50031       -1.73168
H          5.85558        0.02260       -1.25773
C          5.58895       -0.20311       -3.38719
H          4.84716       -0.64201       -4.07769
H          5.59594        0.87958       -3.60708
C          6.96197       -0.79136       -3.66895
H          7.27278       -0.62077       -4.71092
H          6.97326       -1.87891       -3.49217
H          7.72949       -0.34562       -3.01561
H          1.65993        2.46880       -1.23867
H          0.59436        2.65864        0.13697
C          2.67989        3.05978        0.58257
H          2.65515        2.82496        1.66076
H          3.67388        2.73827        0.22670
C          2.55055        4.56789        0.40978
H          1.55674        4.88993        0.77187
H          2.56941        4.81558       -0.66714
C          3.63153        5.36024        1.13133
H          3.61103        5.10315        2.20543
H          4.62211        5.03519        0.76670
C          3.49178        6.86444        0.96267
H          4.28581        7.40935        1.49526
H          2.52464        7.22160        1.35182
H          3.54452        7.15388       -0.09926
