52
Cat672.ts34.5.log	Energy: -1055915.2784428
C          1.89478       -2.57544        0.10539
H          1.71090       -3.41289       -0.57284
H          2.89172       -2.13262        0.01534
C          1.27166       -2.60338        1.39127
H          0.56983       -3.40765        1.62861
H          1.85447       -2.28202        2.26170
H          0.67516       -1.07661        1.56922
Rh         0.26919       -1.17999        0.00233
C          2.24738        1.73679        0.67885
O          2.84904        0.49363       -1.51821
O          0.58864        1.74314       -1.47416
C         -2.54758        0.73549       -0.78011
O         -2.79071       -0.69705        1.41510
O         -1.12245        1.25439        1.54402
P         -1.55771       -0.00397        0.56402
P          1.48561        0.66249       -0.58805
C         -0.55127       -2.04415       -1.48344
O         -1.05153       -2.52902       -2.40076
H          2.74966        2.58929        0.19256
H          1.39404        2.12120        1.26336
C          3.22185        0.98255        1.57349
H          4.05018        0.59996        0.95451
H          2.71138        0.09597        1.98689
C          3.76759        1.83608        2.70700
H          4.30462        2.71795        2.32220
H          2.95543        2.20154        3.35577
H          4.46917        1.26830        3.33723
C          2.82989       -0.39082       -2.61565
H          2.24205       -1.29573       -2.38675
H          2.39600        0.09248       -3.50752
H          3.86814       -0.67633       -2.83731
C          1.13578        2.94101       -1.97564
H          1.11889        3.74204       -1.21697
H          2.17281        2.79834       -2.32167
H          0.51991        3.25828       -2.82977
H         -1.91559        1.55541       -1.16221
H         -2.52888       -0.03312       -1.57133
C         -3.98637        1.16510       -0.51888
H         -4.01766        1.98788        0.21161
H         -4.52885        0.32793       -0.05320
C         -4.68695        1.59965       -1.79761
H         -4.17041        2.45108       -2.26930
H         -4.71149        0.78176       -2.53535
H         -5.72646        1.90487       -1.60295
C         -2.50062       -1.64962        2.41333
H         -1.73411       -2.36095        2.06241
H         -2.13882       -1.16525        3.33625
H         -3.43063       -2.19072        2.63596
C         -2.04824        2.16484        2.08860
H         -2.30853        2.95487        1.36388
H         -2.97111        1.65945        2.41631
H         -1.57505        2.63795        2.96125
