48
Cat668.ts34.5.log	Energy: -867190.9274854
C         -2.38086       -2.18756       -0.54602
H         -2.23592       -3.20976       -0.18648
H         -3.30943       -1.72110       -0.20215
C         -1.89681       -1.86256       -1.85223
H         -1.32862       -2.60851       -2.41540
H         -2.52363       -1.23663       -2.49780
H         -1.12990       -0.45047       -1.63800
Rh        -0.58654       -1.07298       -0.23038
C         -1.20320        2.43769        0.46282
C         -3.31276        0.71464        1.28647
C         -0.89788        0.79680        2.74767
C          2.45885        0.45361        0.58150
C          2.64788       -1.53279       -1.49504
C          1.55331        1.02335       -2.09418
P          1.48898       -0.28479       -0.80775
P         -1.49277        0.69063        1.01002
C          0.16464       -2.32004        0.96474
O          0.65972       -3.03869        1.72229
H         -1.62595        3.13380        1.21015
H         -0.10858        2.58652        0.47999
C         -1.74506        2.74177       -0.92657
H         -2.84613        2.67096       -0.91465
H         -1.40415        1.95252       -1.61868
C         -1.33052        4.10954       -1.44638
H         -1.67613        4.91602       -0.78001
H         -0.23353        4.19329       -1.51851
H         -1.74424        4.30385       -2.44774
H         -3.83681        0.73087        0.31969
H         -3.60293       -0.20886        1.80863
H         -3.63014        1.58377        1.88504
H         -1.35538        1.63176        3.30307
H         -1.12817       -0.15126        3.25507
H          0.19534        0.91441        2.74781
H          1.83548        1.28232        0.95994
H          2.44820       -0.30857        1.37984
C          3.87846        0.93571        0.31732
H          3.87757        1.67679       -0.49988
H          4.49703        0.09428       -0.03644
C          4.52209        1.54924        1.55251
H          3.94817        2.41893        1.91084
H          4.56806        0.82279        2.37939
H          5.54902        1.88836        1.34799
H          2.81247       -2.31297       -0.73735
H          2.16559       -2.00668       -2.36176
H          3.61437       -1.10472       -1.80354
H          1.04330        0.64942       -2.99345
H          1.00662        1.90889       -1.74053
H          2.58299        1.30978       -2.35606
