96
Cat615.ts34.5.log	Energy: -1542885.5848121
C         -0.04820       -1.39776       -2.77820
H          0.21385       -0.72234       -3.59737
H          0.54075       -2.31874       -2.73933
C         -1.41180       -1.46261       -2.36139
H         -2.14505       -0.78356       -2.80572
H         -1.82704       -2.44641       -2.11481
H         -1.30078       -1.43476       -0.74013
Rh        -0.17507       -0.29244       -0.93340
C          0.75321       -2.98867        1.22790
O          2.68860       -2.08195       -0.28121
O          1.87522       -0.56394        1.67228
C         -0.47675        1.86619        1.88833
O         -2.60165        1.67080        0.36743
O         -1.93983       -0.41010        1.74558
P         -1.29765        0.71368        0.71922
P          1.30421       -1.43886        0.38005
C          0.63727        1.24162       -1.73240
O          1.16357        2.10707       -2.27757
H          0.18321       -2.66290        2.11092
H          1.64257       -3.54775        1.55674
C         -0.10687       -3.82150        0.32892
C          0.45276       -4.55772       -0.72233
H          1.53643       -4.54282       -0.86361
C         -1.49762       -3.82839        0.48748
H         -1.94287       -3.23296        1.28766
C         -0.35885       -5.28983       -1.58693
H          0.09341       -5.85883       -2.40295
C         -2.31012       -4.56453       -0.37266
H         -3.39393       -4.55882       -0.23016
C         -1.74304       -5.29835       -1.41441
H         -2.37779       -5.87458       -2.09169
C          3.23920       -1.48408       -1.44784
H          3.94415       -2.22384       -1.85947
H          2.43779       -1.32733       -2.18851
C          3.93181       -0.16418       -1.18135
H          3.21439        0.51307       -0.68797
H          4.76350       -0.31550       -0.47346
C          4.44369        0.49224       -2.45494
H          3.61017        0.58237       -3.17294
H          5.19101       -0.16466       -2.93510
C          5.04101        1.86808       -2.20904
H          4.27627        2.55541       -1.81530
H          5.86370        1.82367       -1.47649
H          5.44107        2.30902       -3.13452
C          2.65964       -1.07086        2.74139
H          2.37431       -0.47854        3.62792
H          2.39398       -2.11791        2.95865
C          4.15243       -0.95593        2.49940
H          4.66423       -1.43154        3.35548
H          4.41031       -1.55329        1.60970
C          4.65005        0.47286        2.33785
H          4.36730        1.06001        3.22975
H          4.12495        0.93930        1.49026
C          6.15077        0.56257        2.11631
H          6.71055        0.13124        2.96193
H          6.45282        0.01232        1.21032
H          6.48082        1.60549        1.99512
H          0.15381        1.22259        2.51831
H         -1.25474        2.33539        2.51031
C          0.35538        2.89121        1.17829
C         -0.23590        3.97763        0.52293
H         -1.32132        4.09262        0.54902
C          1.74524        2.74507        1.11862
H          2.20320        1.88111        1.60220
C          0.54682        4.89770       -0.17050
H          0.06968        5.73739       -0.68179
C          2.52903        3.66973        0.43363
H          3.61379        3.53995        0.40131
C          1.93223        4.74808       -0.21707
H          2.54486        5.46854       -0.76409
C         -3.31653        1.46167       -0.84234
H         -2.61895        1.56230       -1.69268
H         -3.71720        0.43236       -0.87200
C         -4.44335        2.46564       -0.93517
H         -4.98407        2.26923       -1.87784
H         -5.16740        2.27888       -0.12197
C         -3.98906        3.91726       -0.89017
H         -3.22276        4.08149       -1.66826
H         -3.48391        4.09518        0.07279
C         -5.12943        4.90622       -1.06514
H         -5.63167        4.77343       -2.03710
H         -5.89351        4.77759       -0.28141
H         -4.77480        5.94676       -1.01442
C         -2.92265       -0.14060        2.73148
H         -2.73643       -0.86586        3.54103
H         -2.79264        0.86810        3.15966
C         -4.33378       -0.30297        2.19448
H         -5.03195       -0.21168        3.04545
H         -4.55686        0.54008        1.52135
C         -4.56689       -1.61811        1.46491
H         -4.36525       -2.46008        2.15163
H         -3.82363       -1.70843        0.65565
C         -5.96938       -1.74107        0.89306
H         -6.73596       -1.68420        1.68266
H         -6.17720       -0.92986        0.17624
H         -6.10893       -2.69522        0.36238
