94
Cat655.ts34.5.log	Energy: -1777298.3922886
C          1.31118        2.78042       -2.16480
H          1.11892        3.83207       -1.93941
H          2.37169        2.51402       -2.18115
C          0.39945        2.08807       -3.00917
H         -0.50912        2.58798       -3.35533
H          0.79829        1.36322       -3.72782
H          0.07525        0.68572       -2.20447
Rh         0.09409        1.57818       -0.85476
C          2.06883       -1.45971       -0.66826
O          3.24611        0.71683        0.24626
O          1.24666       -0.19226        1.63017
C         -2.22993        0.63341        1.54788
O         -3.10980        0.86529       -1.10516
O         -1.74610       -1.17709       -0.26381
P         -1.75984        0.49686       -0.22054
P          1.66894        0.20701        0.05063
C         -0.22359        3.05465        0.30449
O         -0.39462        3.93011        1.03007
H          1.53441       -2.18984       -0.04487
H          1.55722       -1.45812       -1.64182
C          3.51101       -1.83828       -0.80489
C          4.10340       -2.69830        0.12343
H          3.50057       -3.09117        0.94590
C          4.28118       -1.33108       -1.87099
C          3.66992       -0.41392       -2.88890
H          3.27235        0.49840       -2.41665
H          2.82755       -0.89419       -3.41446
H          4.40643       -0.10770       -3.64436
C          5.44594       -3.05311        0.02032
H          5.88931       -3.72399        0.75988
C          5.62637       -1.69835       -1.96205
H          6.22651       -1.30742       -2.78867
C          6.21284       -2.54831       -1.02594
H          7.26779       -2.81742       -1.11867
C          3.58684        2.00616        0.53382
C          4.67731        2.54906       -0.14792
H          5.20259        1.92639       -0.87496
C          2.89814        2.75871        1.48678
H          2.05970        2.31458        2.02555
C          5.06828        3.85834        0.11666
H          5.92158        4.28364       -0.41723
C          3.29287        4.07266        1.73371
H          2.74277        4.66491        2.46853
C          4.37351        4.62803        1.05137
H          4.67813        5.65777        1.25015
C          1.88308       -1.14021        2.38387
C          3.15273       -0.90809        2.91535
H          3.65685        0.03691        2.71208
C          1.21877       -2.34279        2.63400
H          0.21955       -2.48528        2.21616
C          3.76008       -1.89764        3.68448
H          4.75681       -1.71948        4.09457
C          1.83564       -3.32532        3.40578
H          1.31540       -4.26626        3.60012
C          3.11051       -3.10797        3.92856
H          3.59492       -3.87917        4.53131
H         -1.35644        0.18682        2.05157
H         -2.19232        1.71011        1.76471
C         -3.51926        0.00572        1.97884
C         -3.55520       -1.35861        2.28535
H         -2.62745       -1.93327        2.23756
C         -4.70451        0.76589        2.04528
C         -4.70156        2.24151        1.76911
H         -4.24201        2.47851        0.79847
H         -4.13563        2.79227        2.53924
H         -5.72492        2.63957        1.75751
C         -4.74815       -1.98840        2.62490
H         -4.75729       -3.05620        2.85595
C         -5.89486        0.11600        2.38394
H         -6.82003        0.69695        2.42053
C         -5.92664       -1.24729        2.66490
H         -6.87349       -1.72886        2.92035
C         -4.39455        0.37942       -1.13219
C         -4.72733       -0.95402       -0.89038
H         -3.95771       -1.67376       -0.62169
C         -5.38474        1.30273       -1.47308
H         -5.09048        2.33396       -1.67645
C         -6.06294       -1.34286       -0.95911
H         -6.32005       -2.38383       -0.75056
C         -6.71463        0.89856       -1.54191
H         -7.48501        1.62807       -1.80354
C         -7.06206       -0.42593       -1.27911
H         -8.10612       -0.74240       -1.32727
C         -1.33286       -1.93215       -1.31939
C         -1.42173       -1.49672       -2.64416
H         -1.86760       -0.52780       -2.87226
C         -0.82295       -3.19926       -1.02737
H         -0.78379       -3.52177        0.01478
C         -0.94763       -2.32021       -3.66527
H         -1.01230       -1.97481       -4.69986
C         -0.36203       -4.01411       -2.05613
H          0.04674       -4.99931       -1.82021
C         -0.40890       -3.57314       -3.37940
H         -0.03867       -4.21029       -4.18507
