106
Cat658.ts34.5.log	Energy: -1875907.7544606
C         -0.82278       -3.31040       -1.42140
H         -0.76316       -4.23178       -0.83735
H         -1.81963       -3.08959       -1.81323
C          0.31969       -2.90563       -2.16953
H          1.26054       -3.45663       -2.08278
H          0.16858       -2.47072       -3.16379
H          0.48882       -1.30912       -1.80750
Rh         0.10030       -1.72340       -0.28967
C         -2.18133        0.61042       -1.77638
O         -3.14958       -0.71275        0.31239
O         -1.31628        1.03203        0.82876
C          1.75583        0.21995        2.07353
O          3.32493       -0.86566        0.15690
O          1.76665        1.10562       -0.48072
P          1.75050       -0.35051        0.32922
P         -1.63783       -0.23998       -0.21943
C          0.20220       -2.79190        1.28295
O          0.28016       -3.41808        2.24486
H         -1.51801        1.48505       -1.84905
H         -1.85539       -0.08480       -2.56425
C         -3.61625        1.00483       -1.95087
C         -4.03008        2.30958       -1.66513
H         -3.29270        3.04425       -1.33667
C         -4.55910        0.06922       -2.42461
C         -4.14244       -1.31809       -2.81460
H         -3.63110       -1.82936       -1.98616
H         -3.44678       -1.30430       -3.67063
H         -5.01018       -1.92643       -3.10369
C         -5.36421        2.68704       -1.79234
H         -5.66287        3.71054       -1.55417
C         -5.89419        0.46498       -2.54924
H         -6.62762       -0.26102       -2.91116
C         -6.30440        1.75698       -2.22670
H         -7.35547        2.03764       -2.32818
C         -3.37454       -1.44903        1.44399
C         -2.49215       -1.44316        2.52567
H         -1.58710       -0.83835        2.47972
C         -4.57264       -2.18153        1.49248
C         -5.52878       -2.16291        0.33972
H         -5.65660       -1.14716       -0.06187
H         -5.16131       -2.78725       -0.49031
H         -6.51066       -2.55299        0.64099
C         -2.77410       -2.20277        3.65872
H         -2.06912       -2.20311        4.49282
C         -4.83522       -2.92067        2.64868
H         -5.76652       -3.49159        2.70043
C         -3.94746       -2.94730        3.72305
H         -4.17849       -3.54092        4.61012
C         -1.66693        2.35474        0.73098
C         -0.79539        3.21108        0.05563
H          0.11289        2.78586       -0.37492
C         -2.83218        2.83374        1.35019
C         -3.77995        1.91382        2.05142
H         -4.35763        1.32622        1.32031
H         -3.25033        1.19259        2.68906
H         -4.48767        2.47982        2.67177
C         -1.08632        4.56985       -0.04075
H         -0.40331        5.23433       -0.57490
C         -3.08988        4.20550        1.24902
H         -3.99210        4.60014        1.72417
C         -2.24156        5.06884        0.55766
H         -2.47990        6.13297        0.49530
H          0.70387        0.51845        2.20801
H          1.91372       -0.69014        2.67257
C          2.67481        1.34533        2.43308
C          2.23273        2.65767        2.22720
H          1.21838        2.82305        1.85713
C          3.97656        1.12038        2.92581
C          4.48586       -0.26663        3.18505
H          4.48230       -0.86268        2.26175
H          3.85791       -0.79744        3.91953
H          5.51088       -0.24310        3.57918
C          3.06446        3.74615        2.46815
H          2.70000        4.76005        2.28877
C          4.79769        2.22802        3.16725
H          5.80904        2.05917        3.54722
C          4.35853        3.52942        2.93434
H          5.02642        4.37275        3.12526
C          3.64213       -1.79547       -0.81246
C          3.70720       -1.41174       -2.14964
H          3.52398       -0.36978       -2.41560
C          3.89491       -3.11626       -0.41421
C          3.84606       -3.50993        1.02943
H          4.63266       -2.99958        1.60698
H          2.88321       -3.24490        1.48863
H          3.98953       -4.59262        1.14464
C          4.01476       -2.35561       -3.12681
H          4.06521       -2.05113       -4.17461
C          4.20048       -4.04271       -1.41660
H          4.39542       -5.07910       -1.12790
C          4.25626       -3.67723       -2.76079
H          4.49382       -4.42603       -3.51969
C          2.77251        1.70431       -1.19511
C          4.01249        1.98973       -0.62586
H          4.20579        1.71842        0.41085
C          2.48787        2.03781       -2.53045
C          1.15529        1.70829       -3.13033
H          0.83227        0.69563       -2.84759
H          0.37497        2.40150       -2.77550
H          1.18802        1.77902       -4.22600
C          4.99180        2.61909       -1.38963
H          5.96179        2.83875       -0.93813
C          3.48957        2.67371       -3.27024
H          3.28449        2.93677       -4.31164
C          4.73360        2.96418       -2.71380
H          5.50028        3.45590       -3.31657
