96
Cat607.ts34.5.log	Energy: -2448327.0382374
C         -2.31797        2.45792       -2.61734
H         -2.21707        2.42888       -3.70492
H         -3.33736        2.34576       -2.23867
C         -1.36783        3.19237       -1.86936
H         -0.51081        3.65906       -2.36155
H         -1.69728        3.72079       -0.96827
H         -0.84533        2.14455       -0.66989
Rh        -0.96568        0.98093       -1.78489
O         -2.22359       -0.21699        1.15773
O         -4.02356        0.47503       -0.53103
O         -2.86870       -1.68454       -0.70642
O          1.99011       -0.45412       -2.07356
O          2.05325        1.49351       -0.41351
O          0.98000       -0.63953        0.28397
P          1.00887        0.34873       -1.01087
P         -2.48030       -0.09760       -0.49474
C         -0.79220        0.08567       -3.46009
O         -0.68388       -0.47099       -4.45654
C         -1.60512        0.77004        1.86057
C         -1.99745        2.10719        1.74627
H         -2.83162        2.37297        1.09370
C         -0.55183        0.42254        2.70650
H         -0.25374       -0.62374        2.77735
C         -1.32118        3.09622        2.45674
H         -1.61506        4.14326        2.36743
C          0.12729        1.40569        3.41582
H          0.96781        1.14137        4.05924
C         -0.25607        2.74009        3.27991
Cl         0.62103        3.97323        4.13350
C         -5.08123       -0.09885        0.14573
C         -5.86773       -1.04270       -0.50535
H         -5.60137       -1.33193       -1.52377
C         -5.36510        0.29725        1.45139
H         -4.73273        1.03486        1.94707
C         -6.96932       -1.61382        0.14075
C         -7.81040       -2.63670       -0.56654
H         -8.23416       -2.22906       -1.49785
H         -7.21127       -3.51862       -0.84356
H         -8.64358       -2.97826        0.06313
C         -6.46094       -0.26760        2.09711
H         -6.69756        0.03397        3.12024
C         -7.25556       -1.21294        1.45019
H         -8.11292       -1.64864        1.96965
C         -1.98279       -2.72125       -0.56671
C         -1.98161       -3.43969        0.62629
H         -2.64703       -3.11115        1.42725
C         -1.14927       -3.08268       -1.62461
H         -1.17325       -2.51263       -2.55338
C         -1.15221       -4.55567        0.78119
C         -1.12976       -5.30746        2.08040
H         -0.56366       -4.74975        2.84567
H         -2.14491       -5.45684        2.47687
H         -0.65561       -6.29258        1.96857
C         -0.32042       -4.19146       -1.47195
H          0.32541       -4.49651       -2.29912
C         -0.32283       -4.92373       -0.28535
H          0.32895       -5.79519       -0.18301
C          3.18098       -1.02965       -1.69504
C          3.20027       -2.37963       -1.35057
H          2.27502       -2.95522       -1.40803
C          4.34171       -0.26180       -1.62870
H          4.31044        0.79087       -1.91193
C          4.37280       -2.95380       -0.87377
H          4.39356       -3.99782       -0.55934
C          5.51916       -0.83446       -1.15739
H          6.43240       -0.24309       -1.07666
C          5.52009       -2.17041       -0.76131
Cl         6.96411       -2.86144       -0.09305
C          1.98270        2.80541       -0.80850
C          1.60637        3.75123        0.14217
H          1.37876        3.41238        1.15433
C          2.27158        3.17527       -2.11955
H          2.54673        2.41571       -2.85360
C          1.50757        5.10127       -0.20381
C          1.07091        6.12182        0.80676
H          1.02184        5.69370        1.81725
H          1.75875        6.98098        0.82901
H          0.07213        6.51671        0.55774
C          2.17930        4.52283       -2.46697
H          2.40218        4.83038       -3.49144
C          1.80099        5.47442       -1.52328
H          1.72980        6.52618       -1.81288
C          1.91662       -1.19272        1.12566
C          3.08835       -0.54271        1.50933
H          3.29359        0.45944        1.13667
C          1.61224       -2.46394        1.60608
H          0.68472       -2.93725        1.28465
C          4.01191       -1.19674        2.33095
C          5.32065       -0.54452        2.66786
H          6.13307       -0.99482        2.07328
H          5.30339        0.53268        2.45182
H          5.57924       -0.68113        3.72865
C          2.51972       -3.10327        2.44572
H          2.29276       -4.10583        2.81738
C          3.71642       -2.48409        2.79686
H          4.43343       -3.00253        3.43843
