88
Cat69.ts34.5.log	Energy: -1695670.5625202
C          1.71121       -1.31055       -3.08650
H          1.58776       -0.84643       -4.06890
H          2.75043       -1.39275       -2.75218
C          0.78789       -2.33113       -2.70530
H         -0.06581       -2.56150       -3.34962
H          1.17750       -3.21783       -2.19150
H          0.40840       -1.93554       -1.16897
Rh         0.37052       -0.40039       -1.68942
C          2.19374       -0.83545        1.39682
C          3.55240        0.81849       -0.54788
C          1.28974        1.82504        0.82288
C         -2.17868        1.42128       -0.09634
C         -3.03617       -1.11244       -1.19854
C         -1.44147       -1.09241        1.16703
P         -1.57326       -0.27671       -0.47092
P          1.86752        0.29496       -0.02138
C         -0.03607        1.07571       -2.79324
O         -0.28743        2.00732       -3.42800
H          2.85506       -0.36276        2.14257
H          1.21669       -0.98099        1.88464
C          2.73943       -2.18522        0.95907
H          2.04995       -2.61458        0.21181
H          3.70568       -2.05391        0.44056
C          2.90396       -3.15763        2.11832
H          1.94797       -3.22858        2.66796
H          3.63386       -2.75080        2.84183
C          3.34034       -4.55012        1.68651
H          2.60481       -4.94799        0.96450
H          4.29186       -4.47746        1.13068
C          3.49480       -5.51981        2.84680
H          3.80270       -6.51948        2.50486
H          2.54855       -5.63333        3.40036
H          4.25211       -5.16609        3.56480
C          4.63604        0.90486        0.33615
H          4.51466        0.63421        1.38737
C          3.74566        1.18987       -1.88345
H          2.90469        1.11146       -2.57732
C          5.88229        1.34374       -0.09918
H          6.73560        1.41271        0.57808
C          4.98321        1.64503       -2.33223
H          5.14389        1.93998       -3.37075
C          6.03806        1.71133       -1.43165
F          7.22817        2.13397       -1.85127
C          1.04910        2.95824        0.02924
H          1.28852        2.93099       -1.03667
C          0.96119        1.88415        2.18151
H          1.14494        1.02978        2.83371
C          0.47248        4.10378        0.56235
H          0.27045        4.98239       -0.05277
C          0.36340        3.02142        2.72819
H          0.08634        3.07043        3.78313
C          0.11533        4.11194        1.90781
F         -0.48521        5.18734        2.41598
H         -1.38380        1.88158        0.51300
H         -2.13331        1.94821       -1.06331
C         -3.54332        1.61019        0.54673
H         -4.33004        1.25662       -0.14025
H         -3.63676        0.98612        1.45204
C         -3.79571        3.06732        0.91425
H         -3.71920        3.68934        0.00403
H         -2.98744        3.42307        1.57977
C         -5.14233        3.30716        1.58125
H         -5.94673        2.95436        0.91180
H         -5.21292        2.67957        2.48766
C         -5.37928        4.76341        1.94720
H         -6.35536        4.90749        2.43462
H         -5.35505        5.40792        1.05385
H         -4.60335        5.13245        2.63714
C         -4.09795       -1.59287       -0.41993
H         -4.05822       -1.51025        0.66884
C         -3.10015       -1.24729       -2.58991
H         -2.25489       -0.89383       -3.18873
C         -5.20457       -2.18910       -1.01660
H         -6.03800       -2.57393       -0.42604
C         -4.20577       -1.83239       -3.20132
H         -4.27114       -1.94392       -4.28514
C         -5.24396       -2.29668       -2.40291
F         -6.29981       -2.86759       -2.97682
C         -1.19721       -2.47462        1.19090
H         -1.19043       -3.03610        0.25272
C         -1.43624       -0.39366        2.37792
H         -1.61493        0.68167        2.39618
C         -0.94203       -3.14068        2.38217
H         -0.74621       -4.21414        2.40893
C         -1.17033       -1.04660        3.58310
H         -1.15173       -0.50784        4.53226
C         -0.91954       -2.41081        3.56783
F         -0.64229       -3.03886        4.70774
