72
Cat691.ts34.5.log	Energy: -1064385.4142448
C          1.41202       -2.93859       -0.51527
H          1.50813       -3.32862       -1.53226
H          2.36181       -2.86660        0.02473
C          0.23367       -3.27606        0.22135
H         -0.56198       -3.83990       -0.27422
H          0.33987       -3.54241        1.27934
H         -0.24773       -1.86621        0.87838
Rh         0.19959       -1.17965       -0.53158
C          1.68086        0.64042        2.28995
C          3.52915       -0.22900        0.30558
C          1.75026        1.97649       -0.24341
C         -1.89252        1.37278       -1.63960
C         -3.32128       -0.85537       -0.51110
C         -1.89823        0.95524        1.26887
P         -1.72684        0.06141       -0.34862
P          1.75422        0.26682        0.47364
C          0.28642       -0.97902       -2.40275
O          0.34357       -0.82241       -3.54644
H          2.57679        1.21000        2.59271
H          0.81579        1.30967        2.43682
C          1.52120       -0.59902        3.15920
H          2.39613       -1.25944        3.02843
H          0.65685       -1.17727        2.79009
C          1.34221       -0.27299        4.63368
H          2.20543        0.28397        5.03220
H          0.44729        0.35020        4.79531
H          1.22623       -1.18530        5.23866
H          4.17163        0.49316        0.83918
H          3.62981       -1.18841        0.84160
C          3.97846       -0.39705       -1.13896
H          3.92649        0.57665       -1.65661
H          3.25799       -1.04975       -1.65869
C          5.38445       -0.96294       -1.26225
H          6.12623       -0.31491       -0.76777
H          5.45337       -1.95849       -0.79477
H          5.68452       -1.06952       -2.31588
H          1.77526        1.83687       -1.33751
H          0.74478        2.37804       -0.02610
C          2.81768        2.96926        0.19566
H          3.81707        2.56850       -0.04305
H          2.79309        3.08770        1.29191
C          2.65121        4.33057       -0.46414
H          2.70471        4.24948       -1.56164
H          1.67497        4.77755       -0.21572
H          3.43244        5.03645       -0.14295
H         -0.92087        1.89420       -1.64799
H         -1.92468        0.81618       -2.59237
C         -3.03251        2.37996       -1.57620
H         -2.93879        2.98928       -0.66212
H         -3.99968        1.85565       -1.49646
C         -3.05372        3.29839       -2.78971
H         -2.10902        3.85794       -2.88089
H         -3.18501        2.72424       -3.72058
H         -3.87269        4.03130       -2.72913
H         -4.17095       -0.16410       -0.37762
H         -3.35026       -1.20386       -1.55758
C         -3.44032       -2.04359        0.43303
H         -3.35226       -1.70023        1.47891
H         -2.57725       -2.70675        0.26630
C         -4.74023       -2.81235        0.25682
H         -5.61715       -2.17377        0.45126
H         -4.83612       -3.19862       -0.77059
H         -4.79575       -3.67195        0.94213
H         -1.41397        0.29769        2.00865
H         -1.23800        1.83707        1.18589
C         -3.27529        1.36848        1.77479
H         -3.90081        0.47105        1.90994
H         -3.79500        1.98545        1.02602
C         -3.19305        2.12633        3.09193
H         -2.69796        1.52117        3.86858
H         -2.61269        3.05663        2.98183
H         -4.19156        2.39848        3.46653
