106
Cat656.ts34.5.log	Energy: -1875899.6223332
C         -0.72338        1.47573       -3.87471
H         -0.58419        0.88258       -4.78176
H         -1.75421        1.79536       -3.69730
C          0.34979        2.30348       -3.43674
H          1.30975        2.26987       -3.95903
H          0.11642        3.29168       -3.02403
H          0.46218        1.97591       -1.83370
Rh         0.18737        0.43038       -2.23131
C         -1.99815        1.64606        0.36049
O         -3.10339        0.08675       -1.56362
O         -1.49945       -1.08051        0.11946
C          1.85701       -1.83008       -0.17905
O          3.34900        0.26028       -1.30294
O          1.75690        0.63301        0.71738
P          1.81626       -0.10025       -0.79180
P         -1.60659        0.27996       -0.84518
C          0.28455       -1.21413       -3.18544
O          0.28693       -2.23670       -3.71310
H         -1.37668        1.44081        1.24387
H         -1.55183        2.53199       -0.11474
C         -3.42690        1.87902        0.73965
C         -3.93733        1.34682        1.92893
H         -3.27619        0.77623        2.58424
C         -4.27430        2.63747       -0.09713
C         -3.76947        3.24030       -1.37460
H         -3.45049        2.45432       -2.07653
H         -2.90271        3.89914       -1.20142
H         -4.55006        3.83713       -1.86557
C         -5.27049        1.52492        2.28714
H         -5.64538        1.08987        3.21645
C         -5.60905        2.81399        0.28277
H         -6.26745        3.39986       -0.36457
C         -6.11397        2.25872        1.45718
H         -7.16291        2.40756        1.72459
C         -3.95098       -0.97648       -1.42972
C         -5.20548       -0.77417       -0.85721
H         -5.47489        0.22220       -0.50395
C         -3.57746       -2.24782       -1.86870
H         -2.59222       -2.39636       -2.31456
C         -6.07738       -1.85086       -0.71692
H         -7.05573       -1.68365       -0.25768
C         -4.45813       -3.31384       -1.71087
H         -4.15198       -4.30915       -2.04482
C         -5.72252       -3.13958       -1.13303
C         -6.67494       -4.29214       -0.99532
H         -7.40316       -4.11917       -0.18975
H         -6.14402       -5.23120       -0.77995
H         -7.24673       -4.44796       -1.92564
C         -1.89627       -1.27902        1.41398
C         -3.09380       -1.93188        1.70518
H         -3.74351       -2.25785        0.89329
C         -1.04906       -0.88085        2.44776
H         -0.09950       -0.40451        2.19478
C         -3.44969       -2.14043        3.03327
H         -4.39682       -2.64153        3.25194
C         -1.42412       -1.09279        3.77308
H         -0.75743       -0.76695        4.57652
C         -2.63379       -1.71871        4.09228
C         -3.03453       -1.96443        5.51800
H         -4.09364       -1.71720        5.68639
H         -2.43101       -1.36664        6.21549
H         -2.90249       -3.02470        5.79022
H          0.88351       -1.92429        0.32919
H          1.78002       -2.43985       -1.09044
C          2.99913       -2.24905        0.69469
C          2.94294       -2.00821        2.07139
H          2.04319       -1.55332        2.49114
C          4.14352       -2.85860        0.14108
C          4.22176       -3.18698       -1.32159
H          3.99585       -2.31578       -1.95331
H          3.50318       -3.97902       -1.59220
H          5.22612       -3.54039       -1.59034
C          4.01290       -2.32645        2.90162
H          3.95171       -2.12624        3.97393
C          5.21148       -3.16608        0.98892
H          6.10806       -3.62271        0.56157
C          5.15831       -2.89929        2.35457
H          6.01075       -3.14664        2.99187
C          4.58391        0.18200       -0.70256
C          4.80689        0.43126        0.65203
H          3.97740        0.67682        1.31112
C          5.65660       -0.12223       -1.53834
H          5.46570       -0.28513       -2.60058
C          6.09618        0.32145        1.16026
H          6.25361        0.49681        2.22793
C          6.94068       -0.22433       -1.01074
H          7.77171       -0.47426       -1.67625
C          7.18547       -0.01861        0.35023
C          8.55795       -0.18108        0.93532
H          8.62876       -1.11313        1.52104
H          8.80857        0.64710        1.61580
H          9.32905       -0.22246        0.15291
C          1.62485        1.97877        0.91199
C          1.00105        2.39819        2.08938
H          0.65293        1.64953        2.80314
C          2.10423        2.92842        0.00906
H          2.63266        2.61173       -0.89091
C          0.82706        3.75365        2.33940
H          0.32953        4.06365        3.26258
C          1.91475        4.28453        0.27468
H          2.29188        5.01828       -0.44292
C          1.26841        4.72628        1.43174
C          1.05527        6.18684        1.70541
H          1.48286        6.48015        2.67712
H         -0.01803        6.43480        1.73714
H          1.52011        6.81276        0.93093
