88
Cat628.ts34.5.log	Energy: -1976963.4629501
C         -1.02799       -2.71861       -3.19131
H         -0.88584       -3.79242       -3.04706
H         -2.05123       -2.43727       -3.45973
C          0.05605       -1.95979       -3.72676
H          1.02181       -2.44338       -3.89776
H         -0.16835       -1.17683       -4.45959
H          0.15460       -0.65143       -2.74859
Rh        -0.15462       -1.67701       -1.52594
C         -3.18785        0.14489       -2.13469
O         -3.13338       -1.36733        0.02566
O         -1.68563        0.78612        0.10616
C          1.62932       -0.85765        1.39300
O          3.04586       -1.11956       -0.88928
O          1.55638        0.98643       -0.70545
P          1.51223       -0.64733       -0.44532
P         -2.00313       -0.52498       -0.88610
C          0.06393       -3.27697       -0.51304
O          0.21799       -4.22289        0.12081
H         -3.31524       -0.70937       -2.82130
H         -2.59438        0.89214       -2.68604
C         -4.52171        0.70246       -1.72860
C         -4.78689        2.07031       -1.86028
H         -4.01356        2.73102       -2.25945
C         -5.53166       -0.12821       -1.22634
H         -5.34330       -1.19779       -1.12365
C         -6.01203        2.60298       -1.46864
H         -6.19158        3.67633       -1.56532
C         -6.75815        0.40286       -0.83606
H         -7.53193       -0.25987       -0.44065
C         -7.00184        1.77103       -0.94848
H         -7.96259        2.18736       -0.63677
C         -2.73503       -2.27795        0.96352
C         -3.19944       -3.58869        0.85935
H         -3.85363       -3.85257        0.02679
C         -1.88407       -1.91521        2.01009
H         -1.52949       -0.88603        2.08097
C         -2.81514       -4.54061        1.79820
H         -3.15821       -5.57455        1.73467
C         -1.48904       -2.86733        2.94621
H         -0.81899       -2.61178        3.76917
C         -1.95712       -4.16992        2.82696
F         -1.57795       -5.08276        3.71959
C         -2.56441        1.76213        0.50779
C         -3.68000        1.46753        1.29469
H         -3.89773        0.43354        1.56067
C         -2.27844        3.08008        0.15196
H         -1.39567        3.28475       -0.45648
C         -4.52946        2.49336        1.69359
H         -5.42307        2.28898        2.28515
C         -3.12096        4.11023        0.56193
H         -2.92342        5.14932        0.29275
C         -4.24293        3.80107        1.31956
F         -5.06573        4.78049        1.69517
H          1.12657       -1.82000        1.57100
H          0.98074       -0.08283        1.82796
C          3.00004       -0.85716        1.99867
C          3.56254        0.29555        2.55785
H          2.98787        1.22318        2.58038
C          3.75409       -2.03831        1.99662
H          3.32596       -2.94611        1.56375
C          4.85216        0.27246        3.08605
H          5.27389        1.18449        3.51502
C          5.04023       -2.06440        2.52912
H          5.61190       -2.99543        2.51883
C          5.59741       -0.90529        3.07100
H          6.60751       -0.92319        3.48699
C          4.02675       -0.34550       -1.43731
C          5.22509       -0.18270       -0.74074
H          5.34055       -0.65433        0.23587
C          3.84843        0.25626       -2.68501
H          2.90596        0.11864       -3.21735
C          6.24557        0.58982       -1.28852
H          7.19090        0.73397       -0.76242
C          4.86371        1.03822       -3.23009
H          4.74797        1.52539       -4.19983
C          6.05124        1.19612       -2.52438
F          7.02478        1.94304       -3.04605
C          1.94640        1.98950        0.14317
C          3.19220        2.59802       -0.01368
H          3.87005        2.24883       -0.79183
C          1.05715        2.44525        1.11804
H          0.07524        1.97820        1.19522
C          3.56150        3.64127        0.83013
H          4.53271        4.12930        0.73202
C          1.42453        3.48768        1.96565
H          0.74495        3.85962        2.73435
C          2.67808        4.06901        1.81523
F          3.03636        5.06538        2.62361
