106
Cat648.ts34.5.log	Energy: -1875820.5383440
C          1.24426       -2.67837       -2.23626
H          0.91321       -2.83779       -3.26580
H          2.32100       -2.52489       -2.12155
C          0.50087       -3.28680       -1.19411
H         -0.38866       -3.87871       -1.42891
H          1.03666       -3.65114       -0.31091
H          0.03353       -2.07303       -0.07969
Rh         0.06155       -1.09801       -1.37233
C          1.89738        0.12993        1.59468
C          3.53433       -0.36442       -0.76842
C          1.82959        1.91882       -0.66656
C         -2.57449        1.22611       -1.46596
C         -3.19591       -1.23686       -0.06093
C         -1.51953        0.72833        1.17768
P         -1.79311       -0.12017       -0.42393
P          1.82885        0.11277       -0.30026
C         -0.39673       -0.53373       -3.10310
O         -0.72493       -0.22894       -4.16881
H          2.17577        1.14453        1.90493
H          0.85873       -0.02025        1.91089
C          2.82007       -0.85601        2.24159
C          4.18297       -0.54730        2.33597
H          4.53383        0.41016        1.94191
C          2.36544       -2.09443        2.74094
C          0.90816       -2.45599        2.73932
H          0.44285       -2.29915        1.75476
H          0.34700       -1.82936        3.45139
H          0.76092       -3.50627        3.02696
C          5.09914       -1.43695        2.88614
H          6.15714       -1.16986        2.93721
C          3.30083       -2.98492        3.28198
H          2.94922       -3.94783        3.66350
C          4.65613       -2.67186        3.35275
H          5.36147       -3.38941        3.77911
C          4.41844        0.48578       -1.45002
H          4.11537        1.50780       -1.68643
C          3.95996       -1.67336       -0.50864
H          3.30001       -2.36558        0.01994
C          5.68016        0.05213       -1.83136
H          6.37004        0.71296       -2.35987
C          5.22682       -2.11952       -0.87713
H          5.51867       -3.14135       -0.63496
C          6.10051       -1.25245       -1.54202
O          7.34667       -1.58346       -1.93900
C          7.81553       -2.87385       -1.67127
H          7.20027       -3.64679       -2.16536
H          8.83720       -2.92763       -2.06873
H          7.84285       -3.08537       -0.58729
C          1.08006        2.38906       -1.75438
H          0.53249        1.66333       -2.35970
C          2.53628        2.86048        0.08688
H          3.16142        2.54104        0.92421
C          1.01252        3.74041       -2.05917
H          0.42444        4.10341       -2.90426
C          2.47716        4.22396       -0.19875
H          3.03976        4.92243        0.42122
C          1.70273        4.67529       -1.27523
O          1.56987        5.96718       -1.62672
C          2.23636        6.94525       -0.87852
H          3.33196        6.81044       -0.90908
H          1.98586        7.91279       -1.33136
H          1.90870        6.94949        0.17616
H         -1.84416        2.04967       -1.46705
H         -2.58019        0.82076       -2.48576
C         -3.93283        1.69507       -1.04733
C         -4.06043        2.67347       -0.05292
H         -3.15942        3.11878        0.37295
C         -5.09905        1.13230       -1.61021
C         -5.02845        0.09215       -2.68983
H         -4.53797       -0.82619       -2.33152
H         -4.45545        0.44497       -3.56234
H         -6.03471       -0.17860       -3.03725
C         -5.30806        3.07735        0.41339
H         -5.37810        3.83741        1.19512
C         -6.34472        1.55605       -1.13519
H         -7.24791        1.11712       -1.56788
C         -6.45911        2.50957       -0.12716
H         -7.44660        2.81485        0.22737
C         -4.30673       -0.85481        0.71308
H         -4.33534        0.12935        1.18535
C         -3.20140       -2.50271       -0.64806
H         -2.33802       -2.79049       -1.25460
C         -5.38024       -1.71326        0.88080
H         -6.25014       -1.42254        1.47242
C         -4.27666       -3.37647       -0.48995
H         -4.24453       -4.35564       -0.96810
C         -5.37813       -2.98041        0.27709
O         -6.46762       -3.74145        0.49177
C         -6.52951       -5.01280       -0.09158
H         -5.71621       -5.66894        0.26553
H         -7.49221       -5.44853        0.20429
H         -6.48456       -4.96141       -1.19375
C         -0.93071        2.00389        1.21882
H         -0.72334        2.54818        0.29582
C         -1.72182        0.06599        2.39035
H         -2.16381       -0.93301        2.39392
C         -0.56730        2.59024        2.41977
H         -0.10064        3.57657        2.44619
C         -1.35722        0.64196        3.60832
H         -1.53198        0.08738        4.53062
C         -0.77114        1.91203        3.63000
O         -0.37248        2.54917        4.74713
C         -0.50202        1.89461        5.97825
H          0.07294        0.95202        6.00259
H         -0.10126        2.57471        6.74041
H         -1.55719        1.67364        6.21780
