108
Cat699.ts34.5.log	Energy: -1360184.7043072
C          0.43671       -3.10361        2.12540
H          0.49158       -4.09954        1.67800
H          1.29351       -2.85896        2.76408
C         -0.84943       -2.59744        2.49017
H         -1.74542       -3.17663        2.24912
H         -0.94430       -2.04896        3.43421
H         -0.85543       -1.05212        1.89478
Rh        -0.07144       -1.67894        0.61537
C          1.93408        0.28140        2.80216
C          3.41764       -1.25122        0.91574
C          2.11266        1.16918        0.05905
C         -0.59757        0.33532       -2.20136
C         -2.97025       -1.06550       -1.27891
C         -1.96219        1.19900        0.23431
P         -1.40063       -0.31430       -0.66403
P          1.80802       -0.35412        1.06846
C          0.20598       -2.85098       -0.83325
O          0.36981       -3.52212       -1.76138
H          2.94129        0.68591        3.00195
H          1.82132       -0.61316        3.43700
C          0.85960        1.30855        3.12679
H          1.08431        2.24713        2.59032
H         -0.10754        0.95201        2.72722
C          0.68198        1.62693        4.61376
H          1.67531        1.88671        5.02634
C         -0.23041        2.83627        4.78598
H          0.17425        3.72318        4.27344
H         -0.36673        3.09344        5.84787
H         -1.22842        2.63401        4.36159
C          0.14404        0.43126        5.39244
H          0.03924        0.66657        6.46279
H          0.79949       -0.44888        5.31221
H         -0.85120        0.14055        5.01543
H          4.24005       -0.63830        1.32417
H          3.32133       -2.13349        1.57066
C          3.72332       -1.69624       -0.50643
H          2.83154       -2.19154       -0.92568
H          3.90727       -0.81202       -1.14299
C          4.91595       -2.63649       -0.60731
H          4.73003       -3.52380        0.02484
H          5.81289       -2.14863       -0.18289
C          5.20815       -3.08661       -2.03195
H          4.30386       -3.56448       -2.44815
H          5.39158       -2.19747       -2.66147
C          6.38776       -4.03953       -2.13665
H          6.57258       -4.34631       -3.17739
H          6.21483       -4.95412       -1.54677
H          7.31263       -3.57524       -1.75739
H          2.13148        0.82533       -0.98841
H          1.19883        1.78103        0.14795
C          3.34116        2.01173        0.36214
H          3.32235        2.34350        1.41491
H          4.25248        1.39820        0.25582
C          3.45385        3.23224       -0.54269
H          2.54279        3.84965       -0.43581
H          3.46629        2.90266       -1.59803
C          4.68020        4.09069       -0.26713
H          4.66483        4.41355        0.78908
H          5.58697        3.46937       -0.37474
C          4.78235        5.30707       -1.17309
H          5.67789        5.90678       -0.95064
H          3.90523        5.96446       -1.05946
H          4.83483        5.01177       -2.23346
H          0.12500       -0.44051       -2.50242
H          0.01103        1.18524       -1.85519
C         -1.45915        0.72784       -3.39418
H         -1.97074       -0.16903       -3.77994
H         -2.25939        1.42404       -3.09123
C         -0.66934        1.36802       -4.54105
H          0.15401        0.67688       -4.80291
C         -1.55653        1.52879       -5.77023
H         -1.97520        0.56324       -6.09401
H         -0.99804        1.95524       -6.61787
H         -2.40240        2.20371       -5.55648
C         -0.05194        2.70503       -4.14267
H          0.50159        3.15190       -4.98284
H          0.65264        2.60916       -3.30249
H         -0.83513        3.42234       -3.84293
H         -3.54649       -0.33368       -1.86943
H         -2.65792       -1.86499       -1.97274
C         -3.81812       -1.65405       -0.16182
H         -3.17698       -2.31162        0.45000
H         -4.15901       -0.84892        0.51378
C         -5.02752       -2.42894       -0.66458
H         -4.68515       -3.23909       -1.33387
H         -5.65803       -1.77064       -1.29038
C         -5.87226       -3.02241        0.45433
H         -5.23484       -3.67363        1.07824
H         -6.21009       -2.20979        1.12208
C         -7.07420       -3.80757       -0.04505
H         -7.66360       -4.22320        0.78633
H         -6.76304       -4.64886       -0.68510
H         -7.74628       -3.17178       -0.64397
H         -2.51181        0.81814        1.11198
H         -1.04262        1.64407        0.64866
C         -2.77803        2.25396       -0.49524
H         -2.18269        2.68351       -1.31861
H         -3.66404        1.79438       -0.96720
C         -3.23102        3.38033        0.42505
H         -2.34649        3.82778        0.91459
H         -3.84111        2.95826        1.24445
C         -4.02128        4.46992       -0.28575
H         -3.40630        4.88688       -1.10317
H         -4.90034        4.01622       -0.77710
C         -4.47216        5.58974        0.63801
H         -5.03934        6.36144        0.09593
H         -3.61108        6.08400        1.11613
H         -5.11852        5.20653        1.44399
