96
Cat622.ts34.5.log	Energy: -1637853.0213394
C         -0.66008       -3.55433       -1.44152
H         -0.38550       -4.48989       -0.94705
H         -1.71153       -3.49233       -1.73990
C          0.31246       -2.91553       -2.26796
H          1.32789       -3.31733       -2.33296
H         -0.02325       -2.47278       -3.21347
H          0.25921       -1.36096       -1.81499
Rh         0.11955       -1.91126       -0.29681
C         -2.16241        0.30079       -1.67460
C         -3.40079       -1.32868        0.44441
C         -1.69805        0.74618        1.23705
C          2.34734       -0.00596        1.76880
C          3.39953       -0.84003       -0.76425
C          1.43090        1.24492       -0.72285
P          1.80671       -0.38768        0.02130
P         -1.80367       -0.56074       -0.05090
C          0.43921       -2.90443        1.27483
O          0.65007       -3.45904        2.26572
H         -2.12270       -0.54675       -2.37830
H         -1.24761        0.88716       -1.85745
C         -3.38686        1.12191       -1.93978
C         -3.29335        2.51296       -2.08953
H         -2.31226        2.98918       -2.00510
C         -4.64425        0.52286       -2.09322
H         -4.73574       -0.56214       -2.00752
C         -4.42341        3.28602       -2.34697
H         -4.32597        4.36891       -2.45858
C         -5.77584        1.29357       -2.35002
H         -6.74735        0.80534       -2.45984
C         -5.67249        2.67884       -2.47029
H         -6.56092        3.28206       -2.67167
C         -3.50909       -2.72105        0.47592
H         -2.63348       -3.32220        0.22244
C         -4.51162       -0.56430        0.83108
H         -4.44714        0.52551        0.84742
C         -4.70429       -3.33434        0.84936
H         -4.76557       -4.42612        0.86640
C         -5.69988       -1.18065        1.20330
H         -6.55455       -0.56389        1.49630
C         -5.82097       -2.57752        1.21483
C         -7.10235       -3.23118        1.64199
H         -7.24781       -3.13816        2.73095
H         -7.97307       -2.76123        1.15957
H         -7.11121       -4.30233        1.39619
C         -2.17425        2.05386        1.11516
H         -2.67635        2.37442        0.20348
C         -1.07874        0.37937        2.44081
H         -0.69976       -0.64033        2.55148
C         -2.00177        2.97411        2.14933
H         -2.37166        3.99561        2.02111
C         -0.91931        1.29617        3.47305
H         -0.42712        0.98272        4.39846
C         -1.36627        2.61942        3.34212
C         -1.18124        3.60516        4.45805
H         -1.79705        3.33375        5.33095
H         -0.13473        3.63200        4.79939
H         -1.46587        4.62131        4.15120
H          2.34412       -0.98747        2.26585
H          1.53415        0.57748        2.22426
C          3.68012        0.65853        1.90937
C          3.81811        2.05186        1.87177
H          2.92991        2.68083        1.78765
C          4.83925       -0.12037        2.02441
H          4.74973       -1.20957        2.04615
C          5.07726        2.64618        1.93108
H          5.16260        3.73521        1.89837
C          6.09755        0.47058        2.08636
H          6.98709       -0.15838        2.16963
C          6.22251        1.85825        2.03424
H          7.20944        2.32493        2.07942
C          3.71947       -2.19558       -0.87622
H          2.97423       -2.93584       -0.56807
C          4.35020        0.11080       -1.15824
H          4.13150        1.17624       -1.05810
C          4.96312       -2.59242       -1.36343
H          5.19823       -3.65809       -1.43566
C          5.58352       -0.29207       -1.65605
H          6.31487        0.46569       -1.95100
C          5.91446       -1.64939       -1.76603
C          7.24287       -2.07191       -2.32120
H          8.05527       -1.42844       -1.95142
H          7.47976       -3.11191       -2.05565
H          7.24990       -2.00170       -3.42177
C          1.50588        1.37938       -2.11908
H          1.90603        0.55799       -2.71966
C          0.89107        2.30337        0.00980
H          0.77216        2.22925        1.09207
C          1.06500        2.53455       -2.75048
H          1.13201        2.60937       -3.83961
C          0.44993        3.46254       -0.62999
H          0.02060        4.26795       -0.02810
C          0.52572        3.60248       -2.01666
C          0.04054        4.84167       -2.70996
H         -0.71408        4.60082       -3.47590
H         -0.41016        5.54987       -2.00053
H          0.86560        5.36014       -3.22440
