96
Cat623.ts34.5.log	Energy: -1637845.1864068
C         -1.88199        0.07586       -3.01292
H         -1.65692       -0.67257       -3.77740
H         -2.93674        0.14801       -2.73103
C         -1.06690        1.23406       -2.94911
H         -0.20648        1.33249       -3.61796
H         -1.53917        2.19033       -2.69679
H         -0.59922        1.35932       -1.36806
Rh        -0.54661       -0.25835       -1.35255
C         -1.97063        1.27180        1.69735
C         -3.84454        0.11789       -0.26642
C         -2.24075       -1.50115        1.56249
C          1.56507        0.18151        1.42391
C          2.42805       -1.80711       -0.59728
C          2.78911        1.07751       -1.02893
P          1.58621       -0.19032       -0.41814
P         -2.14070       -0.07192        0.38596
C         -0.36549       -2.06474       -1.85406
O         -0.28209       -3.16269       -2.19100
H         -1.09068        0.92007        2.25821
H         -2.81953        1.19642        2.39076
C         -1.77896        2.70737        1.29659
C         -2.72133        3.67465        1.67371
H         -3.60140        3.36784        2.24621
C         -0.65017        3.13914        0.58860
H          0.10436        2.41360        0.29002
C         -2.55651        5.01592        1.33421
H         -3.30822        5.74745        1.64052
C         -0.47962        4.47847        0.24656
H          0.41453        4.77999       -0.30524
C         -1.43596        5.42392        0.61240
H         -1.30460        6.47509        0.34544
C         -4.42189        1.39385       -0.32513
H         -3.88983        2.24856        0.09099
C         -4.51940       -0.97023       -0.87024
C         -3.94193       -2.35307       -0.91862
H         -3.99223       -2.85670        0.05932
H         -2.87997       -2.32726       -1.20376
H         -4.48169       -2.97332       -1.64722
C         -5.66355        1.60452       -0.91834
H         -6.08737        2.61122       -0.94468
C         -5.76975       -0.73475       -1.45416
H         -6.29479       -1.57662       -1.91428
C         -6.35002        0.53064       -1.47673
H         -7.32641        0.67705       -1.94455
C         -1.14746       -2.37597        1.52971
H         -0.37782       -2.20193        0.77403
C         -3.28443       -1.73879        2.48802
C         -4.55777       -0.94313        2.55592
H         -5.25646       -1.25815        1.76420
H         -4.41160        0.13326        2.41131
H         -5.05562       -1.09780        3.52338
C         -1.04120       -3.45776        2.39801
H         -0.17656       -4.12294        2.33629
C         -3.15587       -2.83243        3.35606
H         -3.95715       -3.02179        4.07592
C         -2.05410       -3.68262        3.32475
H         -1.99630       -4.52469        4.01879
H          1.00495       -0.64149        1.89165
H          0.89964        1.05415        1.46413
C          2.82837        0.49505        2.16234
C          3.41196        1.76406        2.04136
H          2.92535        2.52121        1.42190
C          3.45442       -0.44602        2.99007
H          3.00183       -1.43017        3.12969
C          4.60553        2.06649        2.69037
H          5.04658        3.05928        2.57347
C          4.64726       -0.14457        3.64358
H          5.11952       -0.89539        4.28164
C          5.23428        1.10977        3.48641
H          6.17213        1.34604        3.99462
C          2.46579       -2.69978        0.48048
H          2.07762       -2.39549        1.45200
C          2.89447       -2.23028       -1.86362
C          2.83036       -1.35366       -3.07890
H          3.60285       -0.56872       -3.05926
H          1.85674       -0.83857       -3.13864
H          2.97158       -1.94720       -3.99242
C          2.98497       -3.98356        0.34241
H          3.00475       -4.65845        1.20138
C          3.41699       -3.52294       -1.97714
H          3.77721       -3.85463       -2.95476
C          3.47344       -4.39501       -0.89364
H          3.88447       -5.39913       -1.02085
C          2.20542        2.20437       -1.62345
H          1.12294        2.21341       -1.75695
C          4.19778        1.02599       -0.88934
C          4.96106       -0.12889       -0.30972
H          5.07761       -0.93990       -1.04592
H          4.46945       -0.56601        0.56552
H          5.96483        0.19837       -0.00609
C          2.96220        3.28877       -2.05546
H          2.47088        4.15256       -2.50951
C          4.94044        2.12415       -1.34721
H          6.02797        2.09200       -1.23916
C          4.34579        3.24587       -1.91502
H          4.96532        4.08120       -2.25049
