80
Cat613.ts34.5.log	Energy: -1255530.3056947
C         -1.21823        3.09263       -0.27740
H         -0.71026        3.77381       -0.96495
H         -2.28833        2.96933       -0.47802
C         -0.76058        3.02828        1.06945
H          0.10885        3.61676        1.37544
H         -1.50459        2.92894        1.86911
H         -0.51168        1.45379        1.39088
Rh        -0.03126        1.29862       -0.15898
C         -3.07284        0.11557        1.05613
C         -3.07873        0.37638       -1.84394
C         -1.79052       -1.94910       -0.57878
C          2.41763       -1.19116       -0.37969
C          3.36978        1.39359        0.69642
C          1.64945       -0.43184        2.40649
P          1.86707        0.26780        0.68050
P         -1.93445       -0.09372       -0.42057
C          0.87284        1.50168       -1.78655
O          1.49605        1.54901       -2.76130
H         -3.08495        1.20350        1.22561
H         -2.51864       -0.31599        1.90373
C         -4.47091       -0.40931        0.98431
C         -4.76165       -1.75783        1.23552
H         -3.95929       -2.43349        1.54125
C         -5.52951        0.43745        0.62824
H         -5.32824        1.49788        0.45181
C         -6.05780       -2.24925        1.09914
H         -6.25992       -3.30498        1.29615
C         -6.82660       -0.05048        0.49041
H         -7.63411        0.62877        0.20635
C         -7.09542       -1.39951        0.71695
H         -8.11151       -1.78531        0.60722
H         -3.65352        1.21200       -1.40509
C         -2.30550        0.93332       -3.03444
H         -3.00701        1.27885       -3.81108
H         -1.66731        1.77587       -2.73923
H         -1.65374        0.17280       -3.49154
C         -4.07791       -0.68828       -2.29048
H         -4.66003       -1.11038       -1.46162
H         -4.79307       -0.24578       -3.00288
H         -3.57754       -1.51685       -2.81406
H         -2.81205       -2.35396       -0.67285
C         -0.99772       -2.29420       -1.83493
H         -0.84161       -3.38275       -1.90662
H         -1.50517       -1.96997       -2.75362
H         -0.01084       -1.80806       -1.81485
C         -1.13212       -2.55621        0.65217
H         -1.69516       -2.36706        1.57796
H         -1.03845       -3.64827        0.53823
H         -0.12252       -2.14410        0.79173
H          1.90755       -1.00187       -1.33350
H          1.93694       -2.08071        0.05296
C          3.87136       -1.43757       -0.65015
C          4.61142       -2.39814        0.05056
H          4.12020       -3.00732        0.81214
C          4.52380       -0.69957       -1.64841
H          3.95260        0.02392       -2.23765
C          5.96751       -2.58766       -0.20714
H          6.52449       -3.34233        0.35363
C          5.88046       -0.88228       -1.90387
H          6.36826       -0.29134       -2.68291
C          6.61132       -1.82160       -1.17746
H          7.67560       -1.96623       -1.37711
H          3.64642        1.37959       -0.37266
C          2.99546        2.83313        1.03415
H          3.86401        3.49104        0.86973
H          2.16499        3.17741        0.40205
H          2.69150        2.94414        2.08605
C          4.58327        0.93570        1.49879
H          4.90322       -0.08303        1.24658
H          5.43275        1.60658        1.29160
H          4.39410        0.98331        2.58160
H          0.64539       -0.87932        2.31796
C          2.60844       -1.52722        2.85410
H          2.33397       -1.86520        3.86697
H          2.55913       -2.40817        2.19957
H          3.65280       -1.18950        2.88968
C          1.54308        0.68812        3.43712
H          0.84836        1.47532        3.10968
H          1.16988        0.28521        4.39216
H          2.51887        1.15433        3.63754
