108
Cat683.ts34.5.log	Energy: -1922609.8751927
C          0.50069       -3.28831       -0.62883
H          0.33055       -3.70850       -1.62393
H          1.50314       -3.46524       -0.22495
C         -0.60801       -3.20005        0.26547
H         -1.60828       -3.48518       -0.07694
H         -0.44552       -3.44714        1.31872
H         -0.60425       -1.71192        0.84514
Rh        -0.13126       -1.24152       -0.63681
C          1.43217        0.73462        1.97610
C          3.21288       -1.12354        0.83669
C          2.32538        1.12950       -0.84888
C         -2.41223        1.02596       -2.11077
C         -3.60299       -0.78310       -0.32915
C         -1.88789        1.33757        0.81858
P         -1.99551        0.11911       -0.56072
P          1.71680       -0.12471        0.36613
C          0.07770       -1.03367       -2.48435
O          0.19298       -0.89980       -3.62864
H          0.70128        1.52824        1.78262
H          0.91721       -0.03417        2.57341
C          2.64137        1.26429        2.72878
H          3.23372        1.91564        2.06713
H          3.30585        0.42452        2.99063
C          2.24518        2.01679        3.99044
H          1.59488        2.87462        3.75485
H          1.67718        1.36779        4.67716
H          3.12419        2.39375        4.53693
C          4.54311       -0.89072        0.43248
O          4.80309        0.28641       -0.16427
C          6.02271        0.49824       -0.80762
H          5.93007        1.45764       -1.33383
H          6.86463        0.55812       -0.09450
H          6.24021       -0.29378       -1.54599
C          2.98837       -2.24598        1.65955
O          1.74738       -2.34921        2.18952
C          1.47151       -3.37856        3.09231
H          0.44356       -3.21858        3.44380
H          2.15249       -3.35463        3.96128
H          1.53236       -4.37319        2.61662
C          3.99563       -3.17814        1.93558
H          3.79399       -4.05602        2.54765
C          5.55759       -1.82454        0.68810
H          6.57479       -1.64359        0.34220
C          5.27005       -2.96756        1.42211
H          6.06042       -3.69451        1.62341
C          2.21739        2.52463       -0.74285
O          1.74039        3.05114        0.41659
C          2.23734        4.28374        0.85059
H          1.91056        4.40479        1.89219
H          3.33992        4.31299        0.80824
H          1.84377        5.13550        0.26657
C          2.82352        0.61830       -2.07121
O          2.97837       -0.71633       -2.10913
C          3.39380       -1.34630       -3.28559
H          3.39348       -2.42271       -3.07250
H          4.41411       -1.03714       -3.57575
H          2.69853       -1.14499       -4.11717
C          3.16715        1.44869       -3.13871
H          3.53556        1.02727       -4.07311
C          2.57793        3.36866       -1.80386
H          2.48194        4.44927       -1.69650
C          3.04022        2.82767       -2.99438
H          3.30703        3.48677       -3.82386
H         -1.52803        1.61718       -2.38314
H         -2.49255        0.20885       -2.84655
C         -3.68201        1.86272       -2.10336
H         -3.65990        2.56585       -1.25673
H         -4.54731        1.20280       -1.92680
C         -3.87410        2.62691       -3.40455
H         -3.04252        3.32888       -3.58011
H         -3.91063        1.94382       -4.26859
H         -4.80841        3.20993       -3.39970
C         -4.63790       -0.42426        0.55651
O         -4.55801        0.79473        1.12020
C         -5.40344        1.13868        2.17584
H         -5.05447        2.11148        2.54631
H         -6.45519        1.23291        1.85146
H         -5.35117        0.40390        2.99883
C         -3.79047       -1.95461       -1.09338
O         -2.90076       -2.15731       -2.07960
C         -2.82742       -3.38679       -2.73901
H         -1.94302       -3.33359       -3.38688
H         -3.72013       -3.57418       -3.36155
H         -2.70210       -4.22370       -2.03016
C         -4.85972       -2.82719       -0.85311
H         -4.97000       -3.74341       -1.43236
C         -5.71267       -1.28876        0.80577
H         -6.49260       -1.01334        1.51491
C         -5.79979       -2.49123        0.11325
H         -6.63886       -3.16406        0.30644
C         -1.97567        0.85712        2.14083
O         -2.26038       -0.45471        2.26177
C         -2.20976       -1.07017        3.51292
H         -2.40133       -2.13720        3.33971
H         -1.21941       -0.94995        3.98670
H         -2.98181       -0.67896        4.19942
C         -1.51777        2.68244        0.64514
O         -1.33174        3.10158       -0.62234
C         -1.06865        4.44604       -0.88865
H         -0.98532        4.53510       -1.97953
H         -0.11964        4.77347       -0.43651
H         -1.88410        5.10138       -0.53441
C         -1.33212        3.53262        1.74543
H         -1.05976        4.57634        1.59542
C         -1.78380        1.69142        3.24460
H         -1.86448        1.30357        4.25927
C         -1.47169        3.03116        3.03258
H         -1.31906        3.69188        3.88917
