108
Cat617.ts34.5.log	Energy: -1548332.8210689
C          1.23557       -3.39068        0.35755
H          1.02583       -4.15938       -0.39095
H          2.30231       -3.24457        0.55892
C          0.31230       -3.23118        1.43219
H         -0.60099       -3.83261        1.44183
H          0.70720       -3.05381        2.44002
H          0.03449       -1.64297        1.50088
Rh         0.09128       -1.63989       -0.12490
C          2.48809        0.06109        1.79014
C          3.57810       -0.95169       -0.70614
C          1.97782        1.49147       -0.71044
C         -2.35039        0.32399       -1.67355
C         -3.31020       -1.83438        0.15042
C         -2.25708        0.77821        1.23554
P         -1.96570       -0.54612       -0.04939
P          1.99230       -0.22811        0.00155
C         -0.20019       -2.11443       -1.92231
O         -0.37992       -2.37649       -3.03359
H          2.41244       -0.93863        2.24569
H          1.66701        0.65391        2.22127
C          3.81740        0.67386        2.09006
C          4.00900        2.06215        2.04277
H          3.15617        2.71582        1.84347
C          4.92322       -0.13510        2.38555
H          4.78945       -1.21850        2.45103
C          5.27083        2.61806        2.23934
H          5.39833        3.70235        2.19109
C          6.18633        0.41740        2.58221
H          7.03521       -0.23452        2.80263
C          6.36806        1.79730        2.49920
H          7.35863        2.23284        2.64883
H          3.91659       -1.61272        0.11542
C          4.72106        0.02783       -0.99783
H          4.91301        0.69169       -0.14533
H          4.43673        0.67667       -1.84381
C          5.99836       -0.72131       -1.36709
H          6.80568       -0.00147       -1.58001
H          6.33239       -1.30975       -0.49309
C          5.78110       -1.64982       -2.55566
H          6.70019       -2.21633       -2.77847
H          5.56691       -1.04068       -3.45284
C          4.61367       -2.59845       -2.30899
H          4.87813       -3.29507       -1.49207
H          4.42808       -3.22248       -3.19843
C          3.34190       -1.84934       -1.92403
H          3.00533       -1.23520       -2.77747
H          2.52420       -2.55275       -1.71998
H          2.96471        1.94459       -0.50962
C          0.90004        2.36185       -0.07062
H          1.03193        2.42520        1.02142
H         -0.07006        1.86251       -0.22783
C          0.86762        3.76435       -0.67101
H          0.05539        4.35260       -0.21086
H          1.80699        4.28673       -0.41438
C          0.70918        3.73091       -2.18738
H          0.75863        4.75157       -2.60012
H         -0.29382        3.34579       -2.44265
C          1.75885        2.83826       -2.83602
H          2.75860        3.29027       -2.70327
H          1.58874        2.77442       -3.92296
C          1.76233        1.44130       -2.22495
H          0.80207        0.93371       -2.42740
H          2.53334        0.82487       -2.70864
H         -2.64458       -0.47966       -2.36617
H         -1.35655        0.65563       -2.00796
C         -3.30831        1.47806       -1.73794
C         -2.90743        2.75501       -1.31696
H         -1.88613        2.90731       -0.96422
C         -4.60934        1.33982       -2.23803
H         -4.93875        0.37193       -2.62121
C         -3.78532        3.83502       -1.33849
H         -3.44401        4.81529       -0.99678
C         -5.49252        2.41724       -2.26363
H         -6.50302        2.27722       -2.65530
C         -5.08983        3.66846       -1.80059
H         -5.78277        4.51277       -1.81649
H         -2.90995       -2.63309       -0.50096
C         -4.73244       -1.53686       -0.32166
H         -4.72111       -1.20453       -1.36785
H         -5.17292       -0.71437        0.26326
C         -5.61382       -2.77947       -0.20115
H         -6.64223       -2.54098       -0.51833
H         -5.24345       -3.54995       -0.90141
C         -5.60974       -3.34945        1.21218
H         -6.22496       -4.26261        1.26003
H         -6.07966       -2.62164        1.89877
C         -4.18912       -3.63435        1.68495
H         -3.75156       -4.44004        1.06800
H         -4.19355       -4.00423        2.72331
C         -3.31320       -2.39112        1.57673
H         -3.69939       -1.62510        2.26995
H         -2.28355       -2.61075        1.89346
H         -1.78226        1.65422        0.76084
C         -1.48924        0.53721        2.53571
H         -0.45174        0.25763        2.30047
H         -1.92247       -0.32416        3.07296
C         -1.53272        1.77189        3.42934
H         -0.99349        1.57714        4.37088
H         -0.99213        2.59511        2.92618
C         -2.96416        2.21271        3.71413
H         -2.97148        3.13410        4.31903
H         -3.46424        1.43775        4.32327
C         -3.74920        2.41398        2.42344
H         -3.32648        3.26662        1.86164
H         -4.79558        2.68025        2.64470
C         -3.70628        1.17269        1.53592
H         -4.21223        0.34297        2.05675
H         -4.26870        1.35660        0.61059
