104
Cat608.ts34.5.log	Energy: -2358166.6773108
C         -1.52205        2.96060        3.19057
H         -1.08337        3.96063        3.23309
H         -2.59801        2.95682        2.99351
C         -0.97014        1.94625        4.02694
H         -0.08597        2.16430        4.63209
H         -1.65179        1.23675        4.50787
H         -0.75723        0.62884        3.02363
Rh        -0.32428        1.72468        1.90768
O         -2.10437       -0.76740        0.59662
C         -3.69124        1.56707        0.76188
C         -1.72260        1.12826       -1.33943
O          1.50226        0.24135       -0.36402
C          2.98963        0.72742        1.99782
C          1.05698       -1.50213        1.73091
P          1.31491        0.28960        1.31105
P         -1.96810        0.92173        0.49000
C          0.68306        3.20526        1.29966
O          1.36038        4.07458        0.95476
C         -2.91815       -1.61799       -0.09488
C         -2.69550       -1.93006       -1.43932
H         -1.86179       -1.47717       -1.97489
C         -3.94499       -2.26335        0.59714
H         -4.08494       -2.03784        1.65445
C         -3.53699       -2.82080       -2.10175
H         -3.37712       -3.05432       -3.15552
C         -4.78667       -3.15217       -0.05756
H         -5.60645       -3.63678        0.47469
C         -4.59054       -3.41417       -1.41291
Cl        -5.67312       -4.48384       -2.24361
H         -3.75367        1.73211        1.84687
H         -3.64092        2.57282        0.30873
C         -4.90293        0.80419        0.31295
C         -5.21523        0.59008       -1.03533
H         -4.58375        1.00598       -1.82166
C         -5.76704        0.27657        1.28003
H         -5.54100        0.45009        2.33705
C         -6.33133       -0.16236       -1.38905
H         -6.55315       -0.33631       -2.44453
C         -6.89618       -0.47480        0.94445
C         -7.76655       -1.07263        2.01125
H         -7.45638       -2.10772        2.23563
H         -7.70730       -0.50304        2.94979
H         -8.82028       -1.11190        1.69893
C         -7.16524       -0.69546       -0.40996
H         -8.03499       -1.29051       -0.70098
H         -0.81150        0.54528       -1.54358
H         -2.55978        0.66682       -1.88049
C         -1.52239        2.55403       -1.75552
C         -2.60458        3.39508       -2.04561
H         -3.62742        3.01272       -1.99920
C         -0.22803        3.07032       -1.85759
H          0.61267        2.40664       -1.64491
C         -2.38285        4.71856       -2.41622
H         -3.23192        5.36674       -2.64654
C          0.01405        4.39528       -2.23409
C          1.41859        4.91691       -2.31680
H          2.08640        4.19053       -2.80448
H          1.46764        5.86004       -2.87907
H          1.81635        5.10298       -1.30623
C         -1.08473        5.21616       -2.50776
H         -0.91977        6.25504       -2.80608
C          2.64358        0.35402       -1.09608
C          3.14797       -0.76288       -1.76501
H          2.63240       -1.71836       -1.67342
C          3.27768        1.59326       -1.22660
H          2.85967        2.47175       -0.73086
C          4.31155       -0.65341       -2.51756
H          4.72405       -1.52591       -3.02661
C          4.44671        1.70469       -1.97612
H          4.95882        2.66377       -2.06758
C          4.96744        0.57473       -2.60396
Cl         6.45440        0.69173       -3.48897
H          3.30531        1.62747        1.44826
H          2.70835        1.08091        3.00182
C          4.09318       -0.28252        2.09669
C          4.22171       -1.06218        3.25291
H          3.52588       -0.91886        4.08440
C          5.02736       -0.45580        1.06920
H          4.96368        0.16812        0.17751
C          5.24125       -2.00649        3.35761
H          5.33503       -2.60607        4.26624
C          6.04972       -1.40382        1.15128
C          7.00586       -1.59724        0.01077
H          6.98414       -0.74949       -0.68777
H          8.03853       -1.72944        0.36671
H          6.74202       -2.49990       -0.56512
C          6.14386       -2.18316        2.31214
H          6.94236       -2.92508        2.40194
H          1.54916       -1.65624        2.70400
H         -0.02865       -1.57285        1.88473
C          1.49625       -2.51407        0.71464
C          0.61841       -2.85748       -0.31894
H         -0.36838       -2.39667       -0.35294
C          2.75370       -3.12608        0.75919
H          3.44635       -2.87319        1.56346
C          0.99815       -3.78071       -1.28947
H          0.30045       -4.04268       -2.08893
C          3.15173       -4.05409       -0.20851
C          4.50410       -4.70307       -0.14064
H          5.05956       -4.56689       -1.08214
H          5.10643       -4.28087        0.67514
H          4.41694       -5.78878        0.02651
C          2.25892       -4.37128       -1.24026
H          2.55310       -5.09442       -2.00633
