80
Cat686.ts34.5.log	Energy: -1785817.2872079
C         -1.35281       -3.66030       -0.65946
H         -1.44989       -4.21337       -1.59687
H         -0.81654       -4.19989        0.12758
C         -2.39487       -2.76214       -0.28731
H         -3.22107       -2.56769       -0.97638
H         -2.69105       -2.70094        0.76548
H         -1.58457       -1.41481        0.19513
Rh        -0.62297       -1.67536       -1.07946
C          2.52444       -3.07879       -0.02426
O          2.20549       -0.38536        0.00719
O          1.15157       -1.92155        1.84833
C          0.04565        1.38993       -2.72166
O         -2.33062        1.18984       -1.56834
O         -0.30566        1.32846        0.01191
P         -0.80924        0.53241       -1.35900
P          1.26757       -1.76739        0.17179
C         -0.25093       -2.06561       -2.90709
O         -0.00655       -2.28279       -4.01035
H          3.30509       -2.94643        0.74290
H          1.99761       -4.01856        0.21273
C          3.11643       -3.12439       -1.42656
H          3.62014       -2.16681       -1.64003
H          2.29964       -3.20804       -2.16239
C          4.09963       -4.26979       -1.60726
H          4.94421       -4.18630       -0.90498
H          3.61522       -5.24312       -1.42939
H          4.51267       -4.28441       -2.62701
C          3.47388       -0.16323        0.45897
C          4.37420        0.42335       -0.43539
H          4.04228        0.62914       -1.45510
C          3.87270       -0.43661        1.77130
H          3.16510       -0.89025        2.46540
C          5.66723        0.73652       -0.02792
H          6.38436        1.19531       -0.71097
C          5.17011       -0.13187        2.17751
H          5.50459       -0.33754        3.19597
C          6.05202        0.45176        1.27703
F          7.29041        0.74644        1.67131
C          0.08216       -1.38267        2.51054
C         -0.92954       -2.22807        2.96653
H         -0.84341       -3.30092        2.78441
C          0.00169       -0.00768        2.73140
H          0.79213        0.64382        2.35805
C         -2.03558       -1.70080        3.62757
H         -2.84587       -2.33878        3.98478
C         -1.10051        0.52623        3.39351
H         -1.19339        1.60040        3.56408
C         -2.10803       -0.32757        3.82448
F         -3.18742        0.18584        4.42385
H          1.10606        1.39800       -2.41195
H         -0.01132        0.67981       -3.56389
C         -0.42497        2.77095       -3.16383
H         -0.34169        3.48503       -2.33165
H         -1.49589        2.71822       -3.41291
C          0.37165        3.27988       -4.35503
H          1.44192        3.37260       -4.11000
H          0.28718        2.59927       -5.21746
H          0.01753        4.27117       -4.67551
C         -3.41295        0.70977       -0.88080
C         -3.40491        0.60302        0.51242
H         -2.51339        0.88267        1.07510
C         -4.54119        0.32904       -1.60675
H         -4.52100        0.41102       -2.69469
C         -4.52667        0.11737        1.18069
H         -4.53809        0.03226        2.26866
C         -5.66597       -0.15230       -0.94264
H         -6.56169       -0.45625       -1.48723
C         -5.64370       -0.25524        0.44419
F         -6.71973       -0.72127        1.07867
C         -0.01990        2.65895        0.12613
C         -1.04040        3.59882        0.28601
H         -2.08086        3.27089        0.27822
C          1.31812        3.05682        0.13455
H          2.09410        2.29688        0.02849
C         -0.72032        4.94614        0.42984
H         -1.49582        5.70465        0.55034
C          1.63995        4.40367        0.27844
H          2.67726        4.74298        0.28732
C          0.61545        5.33268        0.41976
F          0.92020        6.62232        0.55598
