68
Cat611.ts34.5.log	Energy: -1156938.9773918
C          0.45871       -3.43330        0.99947
H         -0.13438       -4.18931        0.47794
H          1.54039       -3.58545        0.92228
C         -0.06895       -2.88778        2.21092
H         -1.07414       -3.17514        2.53242
H          0.61334       -2.73128        3.05407
H          0.15086       -1.27940        2.05014
Rh        -0.26272       -1.48872        0.48455
C          2.86763        0.16062        1.03738
C          2.93646       -1.83410       -1.04477
C          1.63039        0.69229       -1.58712
C         -2.11621        1.22859       -0.87008
C         -3.04371        0.28792        1.74275
C         -0.61421        1.82686        1.54197
P         -1.51094        0.42722        0.72221
P          1.77843       -0.61748       -0.27254
C         -1.27321       -2.09382       -0.98264
O         -1.87455       -2.42061       -1.91564
H          3.16262       -0.68690        1.67762
H          2.18576        0.77783        1.63997
C          4.05062        0.95842        0.59424
C          3.94855        2.34819        0.44232
H          3.01109        2.84627        0.70608
C          5.27139        0.34684        0.27705
H          5.38262       -0.73166        0.41537
C          5.01596        3.09849       -0.04424
H          4.91178        4.18026       -0.15874
C          6.34078        1.09413       -0.21103
H          7.28233        0.59641       -0.45598
C          6.21527        2.47248       -0.38232
H          7.05344        3.05825       -0.76658
H          3.26405       -2.49960       -0.22836
C          2.27987       -2.64545       -2.15037
H          1.93951       -2.00541       -2.97937
H          1.39744       -3.17955       -1.76913
H          3.83642       -1.31336       -1.40925
H          2.98103       -3.38375       -2.56893
H          1.34928        1.61614       -1.05264
C          2.79437        0.94953       -2.53374
H          3.01600        0.06476       -3.14858
H          3.71470        1.23077       -2.00492
H          0.73346        0.40379       -2.15794
H          2.54601        1.76950       -3.22613
H         -1.63880        0.66180       -1.68070
H         -1.70550        2.24898       -0.90307
C         -3.60330        1.25772       -1.05765
C         -4.35358        2.38497       -0.70084
H         -3.84224        3.27073       -0.31349
C         -4.28079        0.13936       -1.56188
H         -3.71366       -0.74806       -1.85359
C         -5.74034        2.39580       -0.83467
H         -6.30545        3.28786       -0.55331
C         -5.66765        0.14816       -1.69469
H         -6.17638       -0.73407       -2.09090
C         -6.40397        1.27428       -1.32925
H         -7.49137        1.28006       -1.43478
H         -3.67849       -0.44215        1.21739
C         -2.76109       -0.17052        3.16332
H         -2.17037        0.56977        3.72607
H         -2.19760       -1.11513        3.16400
H         -3.59294        1.24275        1.72757
H         -3.69941       -0.33000        3.71588
H          0.23867        2.05157        0.88020
C         -1.39988        3.08654        1.86274
H         -2.21650        2.88988        2.57317
H         -1.84603        3.53507        0.96183
H         -0.17194        1.39230        2.45317
H         -0.74775        3.84954        2.31560
