88
Cat673.ts34.5.log	Energy: -1351728.4915912
C          0.25565       -1.50254       -3.39325
H         -0.48039       -1.23035       -4.15398
H          1.28147       -1.21859       -3.64769
C          0.03460       -2.69347       -2.63672
H         -0.89660       -3.25055       -2.76846
H          0.89157       -3.33758       -2.41114
H          0.34154       -2.21854       -1.06847
Rh        -0.44766       -0.86076       -1.46623
C          1.46485        2.06591       -2.04230
O          1.52345        1.03120        0.47982
O          2.88612        0.00187       -1.45555
C         -1.79549        0.59494        1.45050
O         -2.94506       -1.66946        0.42190
O         -0.78950       -1.73778        1.81965
P         -1.46914       -0.95363        0.54144
P          1.34296        0.50485       -1.08737
C         -1.95202        0.00106       -2.24007
O         -2.87007        0.49965       -2.72552
H          2.40021        2.57950       -1.76093
H          1.58642        1.75366       -3.09283
C          0.25297        2.97346       -1.88782
H          0.05237        3.14134       -0.81601
H         -0.63493        2.45135       -2.27818
C          0.42084        4.31091       -2.59078
H          1.27294        4.87682       -2.17981
H          0.60639        4.17492       -3.66813
H         -0.47825        4.93657       -2.48350
C          2.61911        1.82311        0.91551
H          2.99878        1.34838        1.83632
H          3.43500        1.78513        0.17525
C          2.22109        3.25683        1.20669
H          3.11961        3.78548        1.57215
H          1.93531        3.76066        0.26793
C          1.09337        3.38670        2.21852
H          1.40477        2.92413        3.17198
H          0.23728        2.79120        1.86427
C          0.65677        4.82279        2.45267
H          1.48756        5.44280        2.82651
H          0.29662        5.28475        1.51898
H         -0.15995        4.88362        3.18804
C          3.25192       -1.36656       -1.44332
H          2.59353       -1.93363       -0.76192
H          3.10914       -1.78431       -2.45522
C          4.70080       -1.51421       -1.03015
H          4.99661       -2.56309       -1.20996
H          5.32197       -0.89909       -1.70446
C          4.98173       -1.14356        0.41831
H          4.36161       -1.77368        1.07814
H          4.64717       -0.10924        0.59318
C          6.44512       -1.28188        0.80283
H          6.80165       -2.31539        0.66330
H          7.08425       -0.62932        0.18635
H          6.61340       -1.01246        1.85668
H         -2.31318        0.33423        2.38908
H         -0.79371        0.95947        1.72877
C         -2.55746        1.64381        0.65363
H         -3.46663        1.19772        0.21774
H         -1.94017        1.95281       -0.20374
C         -2.93513        2.85901        1.48577
H         -3.59227        2.58123        2.32603
H         -2.04458        3.34638        1.91304
H         -3.46731        3.60836        0.88039
C         -3.78566       -1.94329        1.53375
H         -4.17139       -2.96493        1.37986
H         -3.19626       -1.95643        2.46631
C         -4.94100       -0.96437        1.62648
H         -5.59105       -1.28662        2.45952
H         -4.56116        0.03200        1.90997
C         -5.75076       -0.85101        0.34263
H         -6.18569       -1.83676        0.10008
H         -5.06521       -0.61623       -0.48804
C         -6.84849        0.19652        0.42309
H         -7.56165       -0.02461        1.23397
H         -6.42839        1.19664        0.61958
H         -7.41955        0.25740       -0.51553
C          0.16520       -2.77489        1.70569
H         -0.16206       -3.58912        2.37441
H          0.17914       -3.17104        0.67547
C          1.53819       -2.26913        2.09526
H          2.26739       -3.08491        1.94178
H          1.80947       -1.45782        1.39935
C          1.61739       -1.75437        3.52501
H          1.34578       -2.56754        4.22187
H          0.84929       -0.97462        3.65528
C          2.98540       -1.20153        3.88852
H          3.77166       -1.96730        3.78621
H          3.26122       -0.36308        3.22939
H          3.01335       -0.83326        4.92530
