110
Cat641.ts34.5.log	Energy: -1502044.1455491
C          0.75909       -2.57542       -2.42397
H          0.56691       -2.49761       -3.49711
H          1.81762       -2.71053       -2.17301
C         -0.22099       -3.22134       -1.60877
H         -1.16218       -3.54894       -2.05939
H          0.12306       -3.89471       -0.81480
H         -0.42542       -2.21643       -0.34939
Rh        -0.28387       -0.99630       -1.42564
C          2.47271       -1.53886        0.73180
C          2.96769        0.25732       -1.57134
C          1.59584        1.23133        0.75974
C         -2.75665        1.48722       -1.12828
C         -3.64712       -1.15589       -0.42109
C         -1.96356        0.34373        1.40527
P         -2.12843       -0.10551       -0.38261
P          1.66357       -0.24227       -0.35360
C         -0.53578        0.03066       -2.98129
O         -0.66994        0.70145       -3.91256
H          1.76343       -1.64985        1.56786
H          2.40263       -2.47103        0.15331
C          3.85888       -1.30116        1.24331
C          4.04771       -0.48247        2.36492
H          3.16973       -0.09307        2.88727
C          4.99039       -1.84831        0.59952
C          4.85791       -2.79377       -0.56040
H          4.34542       -2.33366       -1.41864
H          4.27794       -3.69036       -0.28762
H          5.84522       -3.12918       -0.90601
C          5.32026       -0.14843        2.81850
H          5.43779        0.50034        3.68965
C          6.26247       -1.50222        1.06728
H          7.13920       -1.91738        0.56235
C          6.43749       -0.64958        2.15519
H          7.44428       -0.39317        2.49292
H          3.28363       -0.67883       -2.06013
H          2.42374        0.80846       -2.35619
C          4.17205        1.05711       -1.08603
H          3.86285        2.09650       -0.88067
H          4.54375        0.66042       -0.13015
C          5.32230        1.06495       -2.08304
H          4.97782        1.47043       -3.05208
H          5.62706        0.02160       -2.28588
C          6.53186        1.85037       -1.59647
H          6.22986        2.89406       -1.39731
H          6.85116        1.44045       -0.62180
C          7.69858        1.83147       -2.57046
H          8.55690        2.40611       -2.19014
H          7.41496        2.26272       -3.54414
H          8.04474        0.80193       -2.75741
H          0.98951        0.93014        1.62935
H          2.59882        1.48155        1.14105
C          0.95670        2.42723        0.06778
H          1.64980        2.83810       -0.68659
H          0.08184        2.07278       -0.50419
C          0.52974        3.53455        1.02031
H          1.40365        3.89364        1.59329
H         -0.16227        3.11576        1.77561
C         -0.14206        4.70896        0.32212
H          0.56748        5.15765       -0.39488
H         -0.98167        4.33415       -0.29008
C         -0.65117        5.77294        1.28034
H         -1.12268        6.61040        0.74463
H          0.16652        6.18557        1.89298
H         -1.40255        5.35869        1.97256
H         -1.88863        2.16357       -1.10165
H         -2.92355        1.25710       -2.18962
C         -3.95035        2.14167       -0.49911
C         -3.77590        2.94058        0.63957
H         -2.76596        3.09602        1.02575
C         -5.25018        1.98964       -1.02962
C         -5.50294        1.23167       -2.30224
H         -5.21803        0.17273       -2.22313
H         -4.92907        1.65482       -3.14256
H         -6.56658        1.27056       -2.57406
C         -4.85060        3.54850        1.28051
H         -4.68055        4.16546        2.16605
C         -6.32139        2.60494       -0.37051
H         -7.32765        2.48652       -0.78199
C         -6.13659        3.36985        0.77780
H         -6.99384        3.83778        1.26747
H         -4.49817       -0.56881       -0.03411
H         -3.82704       -1.33928       -1.49350
C         -3.54035       -2.48858        0.30484
H         -2.57849       -2.96698        0.05333
H         -3.52436       -2.32046        1.39474
C         -4.68077       -3.43940       -0.03198
H         -4.68790       -3.62385       -1.12187
H         -5.64688       -2.95244        0.19486
C         -4.59816       -4.76925        0.70410
H         -3.62652       -5.24431        0.47978
H         -4.59233       -4.58031        1.79240
C         -5.72823       -5.72465        0.35666
H         -5.64075       -6.67543        0.90401
H         -5.73499       -5.96016       -0.71981
H         -6.70988       -5.28842        0.60252
H         -1.40264        1.29295        1.40957
H         -2.96047        0.56942        1.81894
C         -1.21939       -0.66960        2.26244
H         -1.82353       -1.58142        2.39430
H         -0.32026       -0.99650        1.71415
C         -0.82249       -0.12422        3.62706
H         -1.72707        0.15883        4.19515
H         -0.25457        0.81576        3.49328
C          0.01229       -1.09824        4.44680
H         -0.55566       -2.03490        4.58632
H          0.90901       -1.38070        3.86603
C          0.43607       -0.54612        5.79781
H          1.03870       -1.27242        6.36370
H         -0.43841       -0.28519        6.41535
H          1.03995        0.36870        5.68259
