94
Cat659.ts34.5.log	Energy: -2930580.4620715
C         -0.61178        1.30422       -4.08903
H         -0.51172        0.64552       -4.95500
H         -1.61751        1.70728       -3.94028
C          0.51580        2.07719       -3.69365
H          1.47368        1.94025       -4.20261
H          0.35271        3.10299       -3.34402
H          0.60074        1.84081       -2.07246
Rh         0.21178        0.29771       -2.37306
C         -1.89033        1.81446        0.13401
O         -3.09749        0.22732       -1.70230
O         -1.58106       -0.95103        0.04657
C          1.71575       -1.96619       -0.19599
O          3.35633       -0.04853       -1.41987
O          1.79094        0.54639        0.56487
P          1.79643       -0.27550       -0.90417
P         -1.58803        0.36253       -0.99247
C          0.17400       -1.40403       -3.22889
O          0.09022       -2.45092       -3.69695
H         -1.27689        1.62253        1.02627
H         -1.39446        2.64353       -0.39237
C         -3.30146        2.15355        0.50077
C         -3.83734        1.72216        1.71918
H         -3.20676        1.15835        2.40927
C         -4.10501        2.91274       -0.37748
C         -3.56815        3.41960       -1.68333
H         -3.28594        2.58389       -2.34215
H         -2.67213        4.04575       -1.54023
H         -4.31734        4.02658       -2.20919
C         -5.15676        1.99636        2.06747
H         -5.55143        1.64057        3.02184
C         -5.42638        3.18643       -0.00807
H         -6.05145        3.77381       -0.68619
C         -5.95899        2.72787        1.19563
H         -6.99639        2.95274        1.45436
C         -4.01025       -0.76752       -1.51410
C         -5.24954       -0.44991       -0.95729
H         -5.45319        0.58044       -0.66197
C         -3.72024       -2.08189       -1.88736
H         -2.74916       -2.31693       -2.32678
C         -6.19791       -1.44949       -0.76159
H         -7.16800       -1.21355       -0.32144
C         -4.66374       -3.08429       -1.68281
H         -4.44624       -4.11653       -1.96122
C         -5.89812       -2.76461       -1.11665
Cl        -7.07089       -4.01363       -0.85417
C         -1.98089       -1.05336        1.34809
C         -3.21648       -1.61227        1.67464
H         -3.88878       -1.94035        0.88269
C         -1.09929       -0.66060        2.35756
H         -0.11990       -0.26759        2.07698
C         -3.58721       -1.73368        3.00968
H         -4.55564       -2.15988        3.27575
C         -1.46958       -0.77545        3.69460
H         -0.79202       -0.46432        4.49145
C         -2.72067       -1.30203        4.01448
Cl        -3.19612       -1.43392        5.67420
H          0.74279       -1.96118        0.32184
H          1.58527       -2.61793       -1.07169
C          2.83443       -2.41723        0.69232
C          2.80803       -2.10218        2.05473
H          1.94284       -1.57130        2.45791
C          3.93141       -3.12727        0.16275
C          3.97132       -3.54051       -1.27999
H          3.78269       -2.69684       -1.95978
H          3.20807       -4.30696       -1.49647
H          4.95107       -3.96342       -1.53880
C          3.86603       -2.44178        2.89201
H          3.82954       -2.18301        3.95277
C          4.98911       -3.45315        1.01667
H          5.85287       -3.98398        0.60814
C          4.96897       -3.10984        2.36603
H          5.81547       -3.36952        3.00585
C          4.57858       -0.18934       -0.81097
C          5.62458       -0.62273       -1.62661
H          5.42146       -0.82728       -2.67908
C          4.81630        0.11353        0.53012
H          4.00713        0.45530        1.17116
C          6.89680       -0.80530       -1.09621
H          7.71630       -1.15789       -1.72435
C          6.08776       -0.07187        1.06188
H          6.27548        0.13583        2.11598
C          7.12011       -0.54156        0.25371
Cl         8.69127       -0.80883        0.93566
C          1.76676        1.90479        0.68087
C          1.18003        2.43900        1.83043
H          0.77394        1.76444        2.58583
C          2.32135        2.75851       -0.27710
H          2.81970        2.34756       -1.15574
C          1.11300        3.81569        2.01072
H          0.64856        4.23660        2.90367
C          2.24995        4.13810       -0.09995
H          2.67874        4.81063       -0.84449
C          1.63869        4.66379        1.03610
Cl         1.54377        6.37965        1.24777
