84
Cat618.ts34.5.log	Energy: -1539244.9117265
C          0.87306       -3.48456        1.12431
H          0.69464       -4.33934        0.46739
H          1.92611       -3.32501        1.37810
C         -0.12977       -3.14142        2.07858
H         -1.08570       -3.67283        2.07495
H          0.18679       -2.84092        3.08406
H         -0.30873       -1.52742        1.91849
Rh        -0.13287       -1.77355        0.31808
C          1.49807        1.04834       -1.01275
C          2.77952        0.13804        1.46277
C          3.06697       -1.37657       -0.95275
C         -2.21908        0.13762       -1.68896
C         -3.52112       -1.10081        0.57832
C         -1.90188        1.25723        0.98994
P         -1.91639       -0.34803        0.09394
P          1.79993       -0.48256        0.02953
C         -0.42132       -2.58523       -1.36012
O         -0.58758       -3.04790       -2.40499
H          0.61309        1.52033       -0.56246
H          1.18146        0.64381       -1.98647
C          2.60694        2.03739       -1.15573
C          3.65096        1.84105       -2.07014
H          3.63451        0.96819       -2.72685
C          2.64995        3.16209       -0.32207
H          1.84039        3.32389        0.39513
C          4.71831        2.73403       -2.13056
H          5.52679        2.56236       -2.84546
C          3.71408        4.05825       -0.38531
H          3.73122        4.92754        0.27660
C          4.75687        3.84352       -1.28528
H          5.59502        4.54277       -1.33399
C          2.26652       -0.06855        2.74833
C          4.00857        0.80445        1.32939
C          4.15099        1.07510        3.72829
C          4.68409        1.27096        2.45386
C          2.94219        0.39865        3.87527
H          1.32040       -0.60658        2.85393
H          2.52310        0.22807        4.86983
H          4.68424        1.44402        4.60803
H          5.63535        1.79418        2.33065
H          4.44778        0.95517        0.34212
C          4.22775       -1.90654       -0.37678
C          2.79881       -1.66356       -2.30024
C          4.84678       -2.93235       -2.47817
C          3.68381       -2.42279       -3.05817
C          5.10886       -2.67827       -1.13471
H          4.45066       -1.71525        0.67473
H          6.00988       -3.08181       -0.66605
H          5.53985       -3.53335       -3.07142
H          3.45728       -2.62869       -4.10709
H          1.87624       -1.30516       -2.76395
H         -2.43641       -0.81341       -2.19855
H         -1.23335        0.46503       -2.04931
C         -3.26259        1.16824       -1.96959
C         -2.89382        2.50235       -2.18254
H         -1.83374        2.77036       -2.18076
C         -4.62593        0.84239       -1.97061
H         -4.93240       -0.19331       -1.80758
C         -3.85748        3.48950       -2.37365
H         -3.54841        4.52509       -2.53455
C         -5.59105        1.82968       -2.15477
H         -6.64961        1.55863       -2.14600
C         -5.21122        3.15765       -2.35234
H         -5.96974        3.93055       -2.49739
C         -3.96110       -2.21904       -0.14623
C         -4.26872       -0.67815        1.68150
C         -5.89314       -2.42657        1.28829
C         -5.44631       -1.33962        2.03387
C         -5.14306       -2.86676        0.19551
H         -3.36101       -2.59883       -0.97787
H         -5.47486       -3.73012       -0.38632
H         -6.81795       -2.93965        1.56239
H         -6.01772       -0.99667        2.89994
H         -3.93181        0.17250        2.27672
C         -0.75914        1.59573        1.72167
C         -2.97212        2.16655        0.95618
C         -1.72494        3.71906        2.33133
C         -2.87904        3.38691        1.62111
C         -0.66437        2.81723        2.38596
H          0.06112        0.87887        1.77016
H          0.24119        3.05413        2.95026
H         -1.65788        4.67940        2.84863
H         -3.71859        4.08485        1.58003
H         -3.88827        1.92343        0.41644
