90
Cat650.ts34.5.log	Energy: -2741837.9619465
C          1.28740       -2.60656       -2.30541
H          0.96728       -2.70931       -3.34541
H          2.36316       -2.46443       -2.16987
C          0.52864       -3.25904       -1.30490
H         -0.36343       -3.82988       -1.57798
H          1.04904       -3.66577       -0.43129
H          0.04336       -2.09676       -0.13913
Rh         0.10536       -1.05563       -1.37701
C          1.90131       -0.00799        1.68820
C          3.55299       -0.36961       -0.69762
C          1.87125        1.91342       -0.46506
C         -2.53679        1.26911       -1.41352
C         -3.19734       -1.26986       -0.17543
C         -1.54042        0.60536        1.22162
P         -1.77802       -0.13867       -0.43954
P          1.84683        0.08454       -0.20260
C         -0.28333       -0.37994       -3.08794
O         -0.56849       -0.00340       -4.14140
H          2.18260        0.98416        2.06237
H          0.85940       -0.17130        1.98722
C          2.81354       -1.03806        2.28118
C          4.17581       -0.74042        2.40980
H          4.53453        0.24046        2.08629
C          2.34797       -2.30356        2.69403
C          0.88874       -2.65641        2.66247
H          0.42409       -2.42264        1.69314
H          0.33188       -2.08649        3.42397
H          0.73609       -3.72493        2.86768
C          5.08325       -1.66846        2.90839
H          6.14145       -1.41029        2.98875
C          3.27510       -3.23197        3.18282
H          2.91684       -4.21608        3.49768
C          4.63069       -2.92990        3.28611
H          5.32944       -3.67720        3.66947
C          3.97632       -1.69337       -0.49388
H          3.32385       -2.40384        0.01892
C          4.41897        0.50716       -1.36231
H          4.11495        1.53829       -1.55226
C          5.23242       -2.12105       -0.90697
H          5.55858       -3.14640       -0.72741
C          5.67654        0.08876       -1.79071
H          6.34774        0.77799       -2.30569
C          6.08031       -1.22333       -1.55423
Cl         7.64795       -1.74646       -2.07291
C          2.58625        2.79814        0.35354
H          3.19566        2.42145        1.17816
C          1.14551        2.44672       -1.53490
H          0.59698        1.76247       -2.18591
C          2.54964        4.17220        0.13745
H          3.10317        4.85604        0.78309
C          1.10243        3.81849       -1.77255
H          0.53025        4.22432       -2.60848
C          1.79731        4.67790       -0.92359
Cl         1.73446        6.38547       -1.18915
H         -1.80943        2.09208       -1.34098
H         -2.51104        0.93019       -2.45716
C         -3.90859        1.70653       -1.00389
C         -4.06950        2.61551        0.04974
H         -3.18441        3.03885        0.52827
C         -5.05401        1.17737       -1.63713
C         -4.94482        0.22064       -2.78833
H         -4.42835       -0.70696       -2.49764
H         -4.37924        0.65554       -3.62824
H         -5.93956       -0.05507       -3.16324
C         -5.33234        2.97964        0.50764
H         -5.42986        3.68588        1.33535
C         -6.31536        1.56011       -1.16846
H         -7.20329        1.14785       -1.65531
C         -6.46365        2.44184       -0.10120
H         -7.46248        2.71681        0.24591
C         -3.18853       -2.49909       -0.84219
H         -2.31318       -2.75162       -1.44709
C         -4.31614       -0.92492        0.59687
H         -4.35072        0.03009        1.12511
C         -4.26955       -3.37161       -0.75447
H         -4.26480       -4.32917       -1.27741
C         -5.40257       -1.78761        0.69412
H         -6.27761       -1.51728        1.28690
C         -5.37371       -3.00538        0.01360
Cl        -6.72804       -4.07663        0.12813
C         -0.95827        1.87438        1.34803
H         -0.73723        2.47404        0.46354
C         -1.76583       -0.13907        2.38596
H         -2.20285       -1.13776        2.31799
C         -0.61661        2.39150        2.59269
H         -0.15691        3.37738        2.67764
C         -1.42894        0.36562        3.63949
H         -1.60574       -0.21993        4.54324
C         -0.85167        1.63057        3.73720
Cl        -0.41212        2.25698        5.28812
