86
Cat662.ts34.5.log	Energy: -1304843.8559085
C          0.84274       -3.55701        0.15138
H          0.37732       -4.27674       -0.52698
H          1.93365       -3.51523        0.07423
C          0.23720       -3.34542        1.42558
H         -0.70467       -3.84561        1.66684
H          0.88675       -3.22700        2.30002
H          0.16402       -1.69912        1.58267
Rh        -0.19263       -1.68755       -0.00482
C          2.55693        0.26928        1.09150
C          3.03072       -1.25019       -1.40989
C          1.46036        1.15968       -1.44345
C         -2.35466        0.92987       -0.93175
C         -3.33925       -0.66905        1.29818
C         -1.22418        1.25276        1.66897
P         -1.76112       -0.09415        0.52083
P          1.70995       -0.37734       -0.44840
C         -1.11510       -2.16993       -1.57308
O         -1.70880       -2.41884       -2.53443
H          1.74815        0.81455        1.60225
H          2.73296       -0.63028        1.69927
C          3.77669        1.13371        0.99452
C          3.62876        2.50031        0.72357
H          2.62077        2.91175        0.62414
C          5.07711        0.61262        1.17071
C          5.30628       -0.83298        1.50759
H          4.93138       -1.50387        0.71973
H          4.79530       -1.11976        2.44095
H          6.37723       -1.03988        1.63773
C          4.72829        3.34232        0.58438
H          4.58105        4.40311        0.36822
C          6.17205        1.47189        1.03100
H          7.17872        1.06628        1.16541
C          6.01129        2.82259        0.73084
H          6.88657        3.46768        0.62505
H          3.43493       -2.01771       -0.72805
H          2.47926       -1.82222       -2.17574
C          4.15822       -0.45103       -2.05311
H          4.64421        0.19775       -1.30918
H          3.73721        0.22829       -2.81248
C          5.19942       -1.34845       -2.70556
H          5.68032       -2.00599       -1.96309
H          4.74716       -1.99679       -3.47335
H          5.99316       -0.75899       -3.18941
H          0.80012        1.81164       -0.84477
H          2.41360        1.70182       -1.55767
C          0.82571        0.88702       -2.80070
H         -0.06474        0.25374       -2.65939
H          1.51756        0.28657       -3.41557
C          0.45504        2.15838       -3.54756
H         -0.27970        2.75433       -2.98157
H          1.33602        2.79813       -3.71656
H          0.01124        1.93351       -4.52925
H         -1.57124        1.68940       -1.07725
H         -2.30803        0.26633       -1.80418
C         -3.70357        1.56703       -0.80044
C         -3.84439        2.78911       -0.13090
H         -2.94936        3.29750        0.23738
C         -4.85303        0.93954       -1.32924
C         -4.75885       -0.32699       -2.13304
H         -4.25124       -1.14234       -1.59544
H         -4.18492       -0.17122       -3.06114
H         -5.75770       -0.68512       -2.41702
C         -5.09199        3.37654        0.06053
H         -5.17265        4.33025        0.58742
C         -6.09902        1.54245       -1.12628
H         -6.99019        1.05606       -1.53260
C         -6.22929        2.74279       -0.43198
H         -7.21691        3.18758       -0.28934
H         -3.83274        0.19344        1.77839
H         -3.99992       -0.97696        0.47287
C         -3.17507       -1.83425        2.26386
H         -2.47921       -1.56417        3.07535
H         -2.68588       -2.65964        1.72230
C         -4.49993       -2.29296        2.85202
H         -4.98971       -1.48719        3.42228
H         -5.19944       -2.60474        2.05967
H         -4.36397       -3.14796        3.53186
H         -0.40414        1.77669        1.14662
H         -2.05158        1.97492        1.76791
C         -0.75471        0.80099        3.04411
H         -0.05371       -0.04318        2.92659
H         -1.61194        0.40453        3.61262
C         -0.09427        1.92063        3.83422
H          0.80224        2.30032        3.31679
H         -0.77844        2.77282        3.97385
H          0.22066        1.57832        4.83160
