60
Cat669.ts34.5.log	Energy: -965785.3237511
C          1.64763       -2.71589        0.69126
H          1.50117       -3.59384        0.05620
H          2.69504       -2.41966        0.80848
C          0.76423       -2.53744        1.80142
H         -0.07223       -3.22809        1.94227
H          1.19053       -2.19945        2.75334
H          0.35155       -0.97589        1.71314
Rh         0.28097       -1.18164        0.09943
C          1.74113        2.04658        0.85680
C          3.60262        0.13618       -0.18459
C          1.66703        1.36679       -1.92805
C         -2.03973        1.18559       -1.10156
C         -3.23570       -1.17546        0.06899
C         -1.99785        0.79889        1.80698
P         -1.74237       -0.09461        0.20680
P          1.80198        0.56829       -0.25946
C         -0.13730       -1.95519       -1.56442
O         -0.41113       -2.37588       -2.60568
H          2.50067        2.78736        0.55249
H          0.75555        2.51500        0.68220
C          1.89760        1.70666        2.33254
H          2.91212        1.31175        2.51296
H          1.20821        0.88109        2.57998
C          1.64186        2.89308        3.24882
H          2.32871        3.72690        3.03188
H          0.61474        3.27458        3.12648
H          1.77101        2.62155        4.30774
H          3.75995       -0.32719        0.80346
C          4.02228       -0.82301       -1.28823
H          4.01437       -0.33421       -2.27455
H          3.33574       -1.68185       -1.34149
H          4.21239        1.05584       -0.20056
H          5.04028       -1.20630       -1.11929
H          0.63606        1.75093       -1.98152
C          2.66763        2.44995       -2.29853
H          3.70351        2.07832       -2.27802
H          2.61219        3.31439       -1.61967
H          1.69939        0.53282       -2.64796
H          2.47751        2.82477       -3.31670
H         -1.47646        2.07708       -0.77118
H         -1.50255        0.81002       -1.98793
C         -3.46257        1.56649       -1.49682
H         -4.04014        1.88243       -0.61435
H         -3.98055        0.67812       -1.89274
C         -3.48759        2.67059       -2.54374
H         -3.01595        3.59163       -2.16462
H         -2.93949        2.37059       -3.45121
H         -4.51668        2.92148       -2.84282
H         -3.22410       -1.55403       -0.96700
C         -3.21611       -2.33631        1.04923
H         -3.25265       -1.98989        2.09427
H         -2.29334       -2.92263        0.92349
H         -4.15278       -0.57401        0.18008
H         -4.07857       -3.00161        0.89124
H         -1.11093        1.44407        1.91391
C         -3.27554        1.59003        2.03061
H         -4.17640        0.97383        1.88698
H         -3.34725        2.45267        1.35194
H         -1.87581        0.01895        2.57674
H         -3.31116        1.98309        3.05884
