100
Cat605.ts34.5.log	Energy: -2074457.0501650
C          2.79549        2.05577       -2.48667
H          3.04522        3.11158       -2.35378
H          3.66561        1.40359       -2.61009
C          1.59304        1.73202       -3.18796
H          0.91685        2.53351       -3.49839
H          1.61331        0.90043       -3.90217
H          0.91432        0.57246       -2.25985
Rh         1.37784        1.46840       -0.99138
O          2.60126       -1.80425       -0.74988
C          4.44518       -0.05825       -0.09082
C          2.25931       -0.68788        1.68549
O         -0.75640        0.32791        1.27972
C         -1.75783        2.58674        0.11806
C         -1.79346        0.06112       -1.28359
P         -0.71803        1.11403       -0.22685
P          2.62059       -0.23674       -0.05894
C          1.60017        3.04483        0.03214
O          1.70799        3.99156        0.68072
C          1.46121       -2.36336       -1.21476
C          1.06855       -2.17331       -2.54415
H          1.68951       -1.55241       -3.19118
C          0.68831       -3.17981       -0.38262
H          1.01116       -3.33894        0.64790
C         -0.08225       -2.78269       -3.03520
H         -0.39037       -2.63882       -4.07210
C         -0.46102       -3.79756       -0.86894
H         -1.05946       -4.44813       -0.22863
C         -0.84715       -3.58784       -2.19187
Cl        -2.28504       -4.34943       -2.79278
H          4.64996        0.94222        0.32765
H          4.69362        0.01058       -1.16173
C          5.26689       -1.13623        0.59802
H          5.04203       -1.13071        1.67774
H          4.95544       -2.12626        0.22198
C          6.78193       -0.98718        0.42437
H          7.05724        0.03105        0.75925
C          7.51361       -1.98623        1.31374
H          7.24152       -1.85839        2.37321
H          8.60591       -1.87558        1.23060
H          7.26109       -3.02102        1.02781
C          7.21795       -1.13824       -1.02901
H          8.30975       -1.03647       -1.12725
H          6.75920       -0.38253       -1.68408
H          6.93866       -2.13189       -1.41784
H          2.87248       -1.56101        1.96267
H          1.20262       -0.99309        1.68845
C          2.46609        0.47364        2.64633
H          3.50889        0.83098        2.57808
H          1.83251        1.31882        2.32724
C          2.16482        0.14835        4.11242
H          2.79409       -0.71624        4.39818
C          2.55557        1.32515        4.99933
H          3.61863        1.58668        4.87951
H          2.38036        1.10323        6.06348
H          1.96324        2.21920        4.74255
C          0.70690       -0.23577        4.33608
H          0.51742       -0.46585        5.39595
H          0.40974       -1.11711        3.74892
H          0.03794        0.58970        4.04462
C         -1.86858       -0.23016        1.82983
C         -2.15298       -1.57687        1.59193
H         -1.47310       -2.15672        0.96727
C         -2.71514        0.52325        2.64703
H         -2.46419        1.56322        2.86165
C         -3.31028       -2.15103        2.10575
H         -3.55326       -3.19491        1.90068
C         -3.87410       -0.04682        3.16611
H         -4.55093        0.53791        3.79108
C         -4.17723       -1.37668        2.87611
Cl        -5.64583       -2.07411        3.47562
H         -1.24563        3.13718        0.92543
H         -2.73414        2.25829        0.50514
C         -1.91028        3.47368       -1.11065
H         -0.90427        3.69471       -1.50592
H         -2.43478        2.92001       -1.91138
C         -2.65368        4.78698       -0.85637
H         -2.11424        5.31771       -0.04939
C         -2.61134        5.66314       -2.10279
H         -1.57564        5.86035       -2.42007
H         -3.10203        6.63333       -1.92959
H         -3.13082        5.17340       -2.94360
C         -4.09005        4.56181       -0.39671
H         -4.60978        5.51880       -0.23511
H         -4.14257        3.99665        0.54611
H         -4.65929        3.99859       -1.15581
H         -1.38493       -0.95801       -1.17524
H         -1.53153        0.36103       -2.31038
C         -3.30381        0.07911       -1.06936
H         -3.54312        0.07390        0.00356
H         -3.72564        1.01955       -1.46642
C         -4.02441       -1.10479       -1.71863
H         -3.53785       -2.02664       -1.34953
C         -5.48301       -1.14295       -1.27981
H         -5.56919       -1.21782       -0.18406
H         -6.01001       -2.00413       -1.71893
H         -6.01543       -0.23030       -1.59668
C         -3.89841       -1.09261       -3.23705
H         -4.40215       -1.96284       -3.68359
H         -2.84742       -1.12555       -3.56183
H         -4.35592       -0.18222       -3.66057
