56
Cat610.ts34.5.log	Energy: -1058347.1992024
C         -1.01466       -3.93370       -0.31789
H         -0.59396       -4.67314        0.36855
H         -2.10642       -3.86379       -0.28609
C         -0.35416       -3.72864       -1.56899
H          0.58836       -4.24545       -1.77084
H         -0.96878       -3.60719       -2.46818
H         -0.26681       -2.11030       -1.70472
Rh         0.05658       -2.09768       -0.10452
C         -1.90101        0.86051       -0.72977
C         -3.45971       -1.39024        0.14591
C         -1.85402       -0.02394        2.02112
C          1.89351        0.77523        0.66379
C          3.44593       -1.29744       -0.59847
C          1.67627        0.25111       -2.18128
P          1.74320       -0.61784       -0.56906
P         -1.76782       -0.69211        0.31082
C          0.86001       -2.57312        1.53103
O          1.36594       -2.80159        2.54428
H         -1.96599        0.49836       -1.76798
H         -0.92451        1.36006       -0.63260
C         -3.01365        1.80452       -0.40617
C         -2.83996        2.82196        0.54253
H         -1.86354        2.94859        1.01870
C         -4.27030        1.67643       -1.01392
H         -4.42252        0.90004       -1.76868
C         -3.88755        3.67541        0.88060
H         -3.72732        4.46329        1.62070
C         -5.32023        2.52824       -0.67806
H         -6.29015        2.41180       -1.16790
C         -5.13436        3.52975        0.27381
H         -5.95656        4.19920        0.53685
H         -3.60907       -1.75682       -0.88079
H         -3.54131       -2.25015        0.82679
H         -4.24526       -0.65930        0.39115
H         -2.73138        0.61866        2.19211
H         -1.88410       -0.88173        2.70885
H         -0.93611        0.54066        2.24072
H          2.04136        0.27531        1.63412
H          0.89591        1.23866        0.70139
C          2.95243        1.79776        0.40113
C          2.67791        2.92959       -0.37871
H          1.66568        3.08171       -0.76432
C          4.25226        1.63642        0.89929
H          4.48207        0.76891        1.52381
C          3.67107        3.86466       -0.66086
H          3.43330        4.74178       -1.26769
C          5.24784        2.56964        0.61867
H          6.25361        2.42610        1.02106
C          4.96212        3.68616       -0.16580
H          5.74175        4.41950       -0.38443
H          3.66140       -1.75886        0.37625
H          3.47930       -2.09111       -1.35859
H          4.20453       -0.53278       -0.82619
H          1.70220       -0.51109       -2.97349
H          0.72565        0.79534       -2.26982
H          2.51597        0.94967       -2.31374
