96
Cat624.ts34.5.log	Energy: -1637853.7368069
C         -0.72353       -3.63245       -1.50466
H         -0.43314       -4.56525       -1.01410
H         -1.78299       -3.57295       -1.77296
C          0.22414       -2.99452       -2.35968
H          1.23851       -3.39382       -2.45119
H         -0.13858       -2.55473       -3.29650
H          0.17771       -1.43757       -1.90978
Rh         0.08420       -1.98413       -0.38718
C         -2.20219        0.28959       -1.67646
C         -3.42169       -1.36036        0.42633
C         -1.66262        0.65902        1.24184
C          2.33839       -0.04509        1.61809
C          3.37319       -0.94349       -0.89773
C          1.41343        1.15154       -0.90164
P          1.78289       -0.46577       -0.11721
P         -1.81531       -0.61398       -0.08021
C          0.44685       -2.97177        1.17868
O          0.68639       -3.51715        2.16830
H         -2.19240       -0.54334       -2.39813
H         -1.28498        0.86828       -1.87039
C         -3.42308        1.13088       -1.88770
C         -3.32081        2.52592       -1.98347
H         -2.33207        2.98921       -1.91486
C         -4.68941        0.54858       -2.03602
H         -4.78802       -0.53841       -1.99830
C         -4.45095        3.31825       -2.17439
H         -4.34699        4.40395       -2.24486
C         -5.82109        1.33840       -2.22718
H         -6.79891        0.86252       -2.33662
C         -5.70882        2.72722       -2.28633
H         -6.59690        3.34584       -2.43574
C         -3.55344       -2.75294        0.43784
H         -2.68813       -3.36834        0.18464
C         -4.50995       -0.57027        0.81129
H         -4.40743        0.51682        0.84159
C         -4.76887       -3.33295        0.79416
H         -4.86922       -4.42106        0.80612
C         -5.73906       -1.13724        1.16232
C         -6.89229       -0.25370        1.54038
H         -6.65669        0.34715        2.43315
H         -7.12566        0.45468        0.72912
H         -7.79811       -0.83780        1.75541
C         -5.85447       -2.53149        1.14292
H         -6.80644       -2.99474        1.41749
C         -2.18125        1.95645        1.18871
H         -2.72716        2.29997        0.31108
C         -0.98933        0.25069        2.40042
H         -0.59127       -0.76731        2.44073
C         -2.00374        2.82124        2.26846
H         -2.41303        3.83352        2.22051
C         -0.79838        1.10655        3.48850
C         -0.02613        0.65290        4.69338
H         -0.42787        1.09012        5.61915
H         -0.04353       -0.44170        4.79166
H          1.03193        0.95819        4.62149
C         -1.31235        2.40748        3.40334
H         -1.17675        3.09717        4.24129
H          2.34014       -1.01636        2.13512
H          1.52381        0.54388        2.06268
C          3.66731        0.62965        1.74452
C          3.79345        2.02420        1.70735
H          2.89916        2.64579        1.63431
C          4.83447       -0.13942        1.84550
H          4.75495       -1.22941        1.86562
C          5.04798        2.62957        1.75181
H          5.12349        3.71928        1.71923
C          6.08847        0.46224        1.89375
H          6.98402       -0.15943        1.96673
C          6.20117        1.85132        1.84105
H          7.18458        2.32638        1.87692
C          3.67269       -2.30581       -1.00461
H          2.91487       -3.03645       -0.70588
C          4.32864        0.00285       -1.27961
H          4.10455        1.06820       -1.17938
C          4.91847       -2.70437       -1.48247
H          5.15500       -3.76795       -1.56664
C          5.58293       -0.38330       -1.76237
C          6.60401        0.65701       -2.11956
H          6.18551        1.41103       -2.80382
H          6.93987        1.19149       -1.21599
H          7.48711        0.21202       -2.59919
C          5.86311       -1.75060       -1.85893
H          6.83859       -2.07208       -2.23482
C          1.49940        1.24210       -2.29813
H          1.88429        0.39753       -2.87532
C          0.89834        2.23709       -0.18636
H          0.78556        2.17737        0.89805
C          1.09264        2.40078       -2.95107
H          1.16522        2.46408       -4.03950
C          0.49375        3.41400       -0.82962
C         -0.05275        4.57322       -0.04850
H          0.15982        4.47302        1.02430
H          0.37000        5.52603       -0.40132
H         -1.14789        4.64121       -0.15682
C          0.59724        3.48121       -2.22296
H          0.28846        4.39215       -2.74356
