80
Cat633.ts34.5.log	Energy: -1255541.5896013
C         -1.78322        0.27758       -2.62038
H         -1.46541       -0.26182       -3.51679
H         -2.83102        0.11976       -2.34627
C         -1.20443        1.55655       -2.36212
H         -0.40747        1.92485       -3.01463
H         -1.85566        2.35157       -1.98185
H         -0.82323        1.49288       -0.76694
Rh        -0.35587       -0.03862       -1.05631
C         -2.80143        0.16368        1.67547
C         -3.24928       -1.90231       -0.23700
C         -1.10524       -2.15892        1.67474
C          2.51520       -1.00255        0.80656
C          2.69407        1.63572       -0.45062
C          1.03991        1.25661        1.87292
P          1.46208        0.45826        0.25679
P         -1.85159       -0.93728        0.49519
C          0.51316       -1.45420       -1.94148
O          1.05079       -2.34653       -2.44563
H         -2.07093        0.51426        2.42113
H         -3.56210       -0.43249        2.20438
C         -3.42838        1.32666        0.97097
C         -4.69338        1.21749        0.37929
H         -5.25744        0.28723        0.48730
C         -2.74053        2.53981        0.83928
H         -1.75923        2.64790        1.30608
C         -5.24451        2.27771       -0.33794
H         -6.23226        2.16884       -0.79243
C         -3.28973        3.60384        0.12760
H         -2.73446        4.54106        0.04051
C         -4.54220        3.47428       -0.47146
H         -4.97317        4.30618       -1.03326
H         -3.91489       -2.26639        0.56539
H         -3.83654       -1.17990       -0.82760
C         -2.79739       -3.04681       -1.13236
H         -2.21692       -3.77644       -0.54109
H         -2.09887       -2.64871       -1.88591
C         -3.95703       -3.75448       -1.81568
H         -4.65842       -4.18376       -1.08186
H         -4.52861       -3.05705       -2.44901
H         -3.60428       -4.57485       -2.45908
H         -0.53674       -2.85859        1.03842
H         -0.33904       -1.59776        2.23779
C         -2.01038       -2.92266        2.63125
H         -2.75585       -3.49718        2.05639
H         -2.58589       -2.21516        3.25171
C         -1.23358       -3.86946        3.53480
H         -0.67379       -4.61237        2.94449
H         -0.50236       -3.32236        4.15151
H         -1.90069       -4.41849        4.21679
H          1.96024       -1.89600        0.48965
H          2.53294       -1.00343        1.90685
C          3.91238       -1.02776        0.26452
C          4.98240       -0.51718        1.00988
H          4.80010       -0.13229        2.01734
C          4.17266       -1.52483       -1.01964
H          3.35345       -1.93476       -1.61538
C          6.27400       -0.49380        0.48821
H          7.09455       -0.09347        1.08884
C          5.46359       -1.50058       -1.54319
H          5.64523       -1.89351       -2.54656
C          6.51912       -0.98246       -0.79400
H          7.53088       -0.96457       -1.20587
H          3.55502        1.74180        0.22963
H          3.07803        1.15005       -1.36210
C          2.09093        2.99131       -0.78942
H          1.73542        3.48414        0.13279
H          1.19484        2.83465       -1.41157
C          3.07249        3.90632       -1.50515
H          3.96901        4.09353       -0.89252
H          3.41061        3.45851       -2.45308
H          2.61769        4.88107       -1.73922
H          0.35586        2.08261        1.61755
H          0.42026        0.52207        2.41562
C          2.17265        1.75616        2.75696
H          2.75668        2.51857        2.21559
H          2.87675        0.93304        2.96660
C          1.67150        2.33875        4.07041
H          0.98968        3.18623        3.89508
H          1.11715        1.58712        4.65510
H          2.50133        2.70226        4.69534
