88
Cat626.ts34.5.log	Energy: -1727993.8350385
C         -0.53902       -3.81783       -0.89666
H         -0.23409       -4.58459       -0.18020
H         -1.59813       -3.85734       -1.17001
C          0.40898       -3.38465       -1.86744
H          1.43853       -3.75131       -1.83244
H          0.06012       -3.18183       -2.88585
H          0.33455       -1.74290       -1.81350
Rh         0.18564       -1.91042       -0.20555
C         -3.08922       -1.13623       -1.47247
O         -2.77977       -0.97944        1.13629
O         -1.61119        0.87424       -0.26923
C          1.98749        0.54379        1.55575
O          3.30056       -0.70446       -0.38589
O          1.45366        0.94241       -1.13804
P          1.71378       -0.28245       -0.06057
P         -1.79124       -0.78236       -0.20680
C          0.60525       -2.60247        1.51743
O          0.88332       -3.01293        2.55439
H         -3.14161       -2.23809       -1.46057
H         -2.61077       -0.86177       -2.42644
C         -4.45998       -0.53600       -1.35843
C         -4.87754        0.45294       -2.25619
H         -4.19629        0.78620       -3.04273
C         -5.35127       -0.95305       -0.36154
H         -5.04153       -1.72556        0.34382
C         -6.13679        1.03514       -2.14419
H         -6.43543        1.81599       -2.84735
C         -6.61180       -0.37268       -0.24939
H         -7.29143       -0.70624        0.53879
C         -7.00815        0.62803       -1.13565
H         -7.99602        1.08566       -1.04350
C         -2.24731       -1.06900        2.39098
C         -2.53040       -2.20075        3.15455
H         -3.15324       -2.98551        2.72156
C         -1.44295       -0.05075        2.90732
H         -1.24288        0.83143        2.29683
C         -2.00098       -2.31468        4.43703
H         -2.21635       -3.20581        5.03116
C         -0.91057       -0.17946        4.18832
H         -0.27326        0.61361        4.58733
C         -1.18452       -1.31004        4.95615
H         -0.76087       -1.40954        5.95761
C         -2.56801        1.84095       -0.43430
C         -3.60198        2.01984        0.48684
H         -3.69590        1.33997        1.33336
C         -2.44096        2.69148       -1.53334
H         -1.62269        2.52279       -2.23625
C         -4.52179        3.04457        0.28353
H         -5.34302        3.17159        0.99246
C         -3.36046        3.72177       -1.71695
H         -3.26003        4.38626       -2.57868
C         -4.40615        3.89947       -0.81266
H         -5.13194        4.70177       -0.96189
H          2.03067       -0.30142        2.26264
H          1.02968        1.04966        1.75056
C          3.14538        1.47852        1.75604
C          2.92091        2.84340        1.96536
H          1.89726        3.22526        1.96533
C          4.46420        1.00736        1.76366
H          4.65402       -0.05540        1.60684
C          3.98469        3.72289        2.14568
H          3.78665        4.78703        2.29305
C          5.52888        1.88597        1.94450
H          6.55208        1.50209        1.94124
C          5.29463        3.24792        2.13028
H          6.13162        3.93663        2.26808
C          3.57932       -1.64729       -1.33809
C          4.11245       -2.86986       -0.93211
H          4.27624       -3.04553        0.13248
C          3.33292       -1.39238       -2.68803
H          2.90102       -0.43423       -2.98278
C          4.40789       -3.84092       -1.88615
H          4.82437       -4.79967       -1.56813
C          3.62777       -2.37286       -3.63352
H          3.43301       -2.17539       -4.69038
C          4.16503       -3.59761       -3.23860
H          4.39364       -4.36283       -3.98351
C          2.03830        2.18474       -1.13886
C          3.40364        2.34787       -1.37729
H          4.03721        1.47112       -1.51294
C          1.21048        3.28866       -0.94059
H          0.14874        3.12249       -0.75287
C          3.93894        3.63281       -1.39604
H          5.01066        3.76245       -1.56241
C          1.75743        4.56943       -0.97388
H          1.10865        5.43479       -0.81775
C          3.12211        4.74600       -1.19739
H          3.55085        5.75037       -1.21496
