84
Cat616.ts34.5.log	Energy: -1444293.3194933
C         -0.88845       -3.76878       -0.83579
H         -0.68933       -4.61257       -0.16968
H         -1.94809       -3.61999       -1.06664
C          0.08280       -3.46631       -1.84028
H          1.02613       -4.01998       -1.86006
H         -0.27050       -3.19968       -2.84294
H          0.23346       -1.84360       -1.74702
Rh         0.16331       -2.03507       -0.13677
C         -2.22900        0.10716       -1.54544
O         -3.07245       -1.01985        0.66617
O         -1.18074        0.69907        1.00246
C          2.12114        0.27441        1.58031
O          3.27564       -0.75257       -0.56222
O          1.31687        0.87167       -0.98265
P          1.73351       -0.42996       -0.06921
P         -1.59881       -0.57824        0.05171
C          0.63287       -2.81182        1.53392
O          0.88608       -3.24405        2.57188
H         -2.46845       -0.81369       -2.10594
H         -1.32081        0.52100       -2.01150
C         -3.36930        1.07973       -1.61204
C         -3.17799        2.34989       -2.17012
H         -2.19246        2.61835       -2.56088
C         -4.65211        0.74327       -1.15390
H         -4.81588       -0.24439       -0.72195
C         -4.22075        3.27188       -2.23942
H         -4.04479        4.25776       -2.67686
C         -5.69454        1.66367       -1.22151
H         -6.68486        1.38452       -0.85269
C         -5.48362        2.93425       -1.75779
H         -6.30371        3.65443       -1.80881
C         -3.16448       -1.60959        1.96662
H         -2.27403       -1.31075        2.55097
C         -3.19767       -3.12015        1.85659
H         -2.27636       -3.48773        1.38766
H         -4.05710       -3.43777        1.24586
H         -3.28941       -3.57736        2.85331
C         -4.40845       -1.04308        2.62127
H         -4.37354        0.05504        2.65100
H         -5.30385       -1.33862        2.05272
H         -4.51307       -1.41969        3.64977
C         -1.97324        1.85775        1.28671
H         -2.98886        1.70799        0.88367
C         -1.32942        3.05594        0.62107
H         -1.23823        2.89451       -0.45921
H         -0.31894        3.22125        1.02194
H         -1.93243        3.96168        0.78404
C         -2.04974        2.00758        2.79354
H         -2.50071        1.12016        3.25824
H         -1.04163        2.13738        3.21705
H         -2.65362        2.88624        3.06560
H          2.62559       -0.54777        2.11520
H          1.13010        0.40623        2.03860
C          2.90839        1.54823        1.63744
C          2.33159        2.70009        2.18573
H          1.31512        2.64652        2.58289
C          4.22076        1.62947        1.15101
H          4.68196        0.73802        0.72228
C          3.03171        3.90445        2.23278
H          2.55928        4.79008        2.66474
C          4.91961        2.83356        1.19059
H          5.93950        2.87887        0.80027
C          4.32807        3.97741        1.72740
H          4.87919        4.92028        1.75756
C          3.56521       -1.77282       -1.52479
H          2.66601       -1.93070       -2.14809
C          3.88877       -3.06465       -0.80309
H          3.02191       -3.38440       -0.20602
H          4.74905       -2.92109       -0.13120
H          4.13589       -3.86106       -1.52155
C          4.70254       -1.27025       -2.38932
H          4.43208       -0.33268       -2.89556
H          5.59685       -1.08450       -1.77473
H          4.96095       -2.01561       -3.15617
C          2.19517        1.67251       -1.77842
H          3.23618        1.42954       -1.51222
C          1.93362        3.13227       -1.47584
H          2.12820        3.35098       -0.41773
H          0.88763        3.39121       -1.70067
H          2.58828        3.77051       -2.08806
C          1.95484        1.32238       -3.23557
H          2.12486        0.25072       -3.41505
H          0.91477        1.55113       -3.51639
H          2.62512        1.89559       -3.89398
