84
Cat62.ts34.5.log	Energy: -1162975.4365686
C          2.12277       -1.43704        2.62179
H          1.68435       -2.11348        3.36049
H          3.04712       -1.80823        2.16997
C          1.98862       -0.03283        2.83541
H          1.40692        0.33592        3.68541
H          2.84995        0.60703        2.60715
H          1.47609        0.55571        1.42219
Rh         0.57086       -0.78661        1.28610
C          1.96499        0.36351       -1.82404
C          3.37153       -1.86769       -0.64231
C          0.88586       -2.31959       -2.07449
C         -2.31846       -0.03068       -0.48555
C         -2.36687        0.87497        2.31495
C         -0.68529        2.30869        0.21364
P         -1.21515        0.62912        0.85225
P          1.64136       -1.15116       -0.79894
C         -0.57635       -2.20171        1.73576
O         -1.30197       -3.05922        2.01039
H          2.44236        0.09618       -2.78164
H          0.96992        0.76645       -2.07709
C          2.77106        1.43083       -1.09963
H          2.36176        1.55416       -0.08159
H          3.81190        1.09015       -0.95939
C          2.77000        2.77809       -1.80788
H          1.72433        3.11017       -1.94936
H          3.18552        2.66678       -2.82602
C          3.53903        3.85680       -1.05832
H          3.12654        3.94606       -0.03749
H          4.58605        3.53073       -0.92758
C          3.50509        5.21243       -1.74480
H          4.06937        5.96994       -1.18007
H          2.47125        5.57930       -1.85168
H          3.93941        5.15968       -2.75619
H          3.81724       -1.24305        0.15272
C          3.30960       -3.30382       -0.13113
H          4.30377       -3.63586        0.20875
H          2.60597       -3.40466        0.70808
H          2.99115       -3.99531       -0.92720
C          4.25053       -1.76489       -1.88205
H          4.43277       -0.72496       -2.18841
H          5.23349       -2.22583       -1.68969
H          3.81012       -2.29661       -2.74133
H          1.74443       -2.78958       -2.58590
C          0.07105       -3.41011       -1.38999
H         -0.24839       -4.16738       -2.12473
H          0.62828       -3.92010       -0.59317
H         -0.82958       -2.98382       -0.92448
C          0.04458       -1.61984       -3.13609
H          0.62854       -0.92751       -3.75793
H         -0.40366       -2.36891       -3.80882
H         -0.78595       -1.05723       -2.68380
H         -1.78078        0.20480       -1.42003
H         -2.23578       -1.12382       -0.37850
C         -3.78816        0.34521       -0.61555
H         -4.32562        0.07430        0.30869
H         -3.90991        1.43371       -0.73285
C         -4.45033       -0.35747       -1.79442
H         -4.32440       -1.44993       -1.68436
H         -3.91662       -0.08993       -2.72509
C         -5.92905       -0.03060       -1.94858
H         -6.45673       -0.29835       -1.01602
H         -6.04880        1.06236       -2.05486
C         -6.58300       -0.73428       -3.12668
H         -7.65017       -0.47935       -3.21199
H         -6.50937       -1.82928       -3.02814
H         -6.09788       -0.45762       -4.07669
H         -2.95278       -0.06311        2.27908
C         -1.59958        0.87436        3.63352
H         -2.30422        0.86285        4.48074
H         -0.94285       -0.00391        3.70191
H         -0.97169        1.77325        3.73585
C         -3.33331        2.05446        2.25765
H         -3.92843        2.08585        1.33724
H         -4.03694        1.99891        3.10445
H         -2.79961        3.01219        2.34944
H          0.09203        1.99487       -0.50300
C         -1.70294        3.13927       -0.55976
H         -1.20726        4.03353       -0.97316
H         -2.13046        2.58684       -1.40856
H         -2.53076        3.48914        0.07218
C          0.01147        3.12775        1.29445
H          0.74474        2.52431        1.84932
H          0.54588        3.97808        0.84076
H         -0.70560        3.54146        2.01958
