60
Cat614.ts34.5.log	Energy: -1247070.6931951
C         -0.89998       -3.80894       -0.29875
H         -0.49559       -4.54644        0.39892
H         -1.97700       -3.63895       -0.22267
C         -0.25032       -3.63923       -1.55042
H          0.66972       -4.18924       -1.76628
H         -0.86169       -3.45232       -2.43884
H         -0.02838       -1.96903       -1.71505
Rh         0.22877       -1.98202       -0.10986
C         -1.94815        0.72930       -0.90949
O         -3.01490       -1.45412        0.42973
O         -1.57290        0.31229        1.63995
C          1.99206        0.82013        0.99009
O          3.26867       -0.68554       -0.78457
O          1.32915        0.83337       -1.52479
P          1.71088       -0.32062       -0.41136
P         -1.59354       -0.64062        0.27847
C          1.12874       -2.63114        1.42722
O          1.67995       -3.02078        2.36185
H         -2.03797        0.21909       -1.88140
H         -1.00082        1.29215       -0.94572
C         -3.12238        1.62254       -0.65920
C         -3.09162        2.59307        0.35164
H         -2.19146        2.69744        0.95998
C         -4.28707        1.49738       -1.42648
H         -4.32246        0.75149       -2.22580
C         -4.20093        3.39778        0.59797
H         -4.15959        4.14683        1.39276
C         -5.39766        2.30253       -1.18229
H         -6.29637        2.18792       -1.79347
C         -5.36031        3.25393       -0.16439
H         -6.22924        3.88709        0.02986
C         -4.20949       -0.92313        0.97213
H         -4.02653        0.00581        1.53264
H         -4.93386       -0.71008        0.17252
H         -4.63663       -1.67653        1.65161
C         -1.24324       -0.26195        2.88398
H         -2.04205       -0.93348        3.24172
H         -0.30561       -0.83881        2.82251
H         -1.12101        0.55880        3.60415
H          2.33336        0.17642        1.81602
H          0.98835        1.18470        1.25981
C          2.94342        1.94571        0.72517
C          2.47311        3.17866        0.25979
H          1.40023        3.31739        0.10466
C          4.32067        1.77646        0.90500
H          4.69956        0.81283        1.25341
C          3.35624        4.22070       -0.01128
H          2.97136        5.17834       -0.37050
C          5.20550        2.81731        0.63455
H          6.27796        2.66950        0.78363
C          4.72644        4.04372        0.17599
H          5.42025        4.86129       -0.03408
C          3.62909       -1.90759       -1.38834
H          2.85311       -2.67356       -1.21404
H          3.77106       -1.77397       -2.47350
H          4.57782       -2.24358       -0.94593
C          1.18572        0.49912       -2.88144
H          2.16532        0.28701       -3.34157
H          0.52915       -0.38044       -3.01323
H          0.73548        1.36175       -3.39149
