100
Cat635.ts34.5.log	Energy: -1826512.7380873
C         -0.88799       -2.77921       -2.50652
H         -0.50491       -3.79630       -2.38722
H         -1.97244       -2.72314       -2.64928
C         -0.05481       -1.81475       -3.14363
H          0.96302       -2.08413       -3.44052
H         -0.52136       -1.09134       -3.82222
H         -0.04537       -0.50106       -2.15709
Rh        -0.06010       -1.57021       -0.93643
C         -3.16536       -0.08647       -1.65576
C         -3.16191       -1.46110        0.83636
C         -1.73751        1.05599        0.72214
C          1.77931       -0.39443        1.73758
C          3.39864       -1.10637       -0.59198
C          1.95656        1.36164       -0.61520
P          1.75851       -0.39589       -0.13157
P         -2.01884       -0.48279       -0.23118
C          0.30134       -3.01377        0.21075
O          0.53985       -3.87025        0.94880
H         -3.24064       -1.06070       -2.16312
H         -2.58996        0.58388       -2.30568
C         -4.53147        0.44774       -1.37057
C         -4.76677        1.82424       -1.25737
H         -3.93147        2.51371       -1.38873
C         -5.61121       -0.42736       -1.19773
H         -5.44456       -1.50466       -1.28132
C         -6.04092        2.31004       -0.97838
H         -6.20441        3.38807       -0.89954
C         -6.88675        0.05596       -0.91310
H         -7.71434       -0.64582       -0.78194
C         -7.10793        1.42804       -0.80299
H         -8.10894        1.80958       -0.58668
C         -3.02595       -2.85095        0.79644
H         -2.21187       -3.26381        0.19659
C         -4.22205       -0.91679        1.60073
O         -4.35531        0.41655        1.60084
C         -5.36925        1.02404        2.34748
H         -6.36843        0.69621        2.01577
H         -5.27568        2.10214        2.16887
H         -5.25493        0.82367        3.42753
C         -3.88950       -3.69975        1.48718
H         -3.75386       -4.78157        1.43303
C         -5.07664       -1.76521        2.31528
H         -5.88715       -1.34791        2.91273
C         -4.91004       -3.14719        2.25285
H         -5.59182       -3.79243        2.81279
C         -1.60546        0.98210        2.11281
H         -1.76089        0.01738        2.60354
C         -1.48954        2.29404        0.09969
O         -1.51970        2.30910       -1.25128
C         -1.16577        3.47774       -1.94004
H         -1.87977        4.29826       -1.74683
H         -1.19654        3.22813       -3.00828
H         -0.14789        3.80602       -1.67782
C         -1.29318        2.10127        2.88085
H         -1.20092        2.01112        3.96535
C         -1.22102        3.43166        0.86803
H         -1.05410        4.39287        0.38245
C         -1.12344        3.33413        2.25413
H         -0.90146        4.22836        2.84157
H          1.43600       -1.41386        1.96663
H          0.95294        0.26975        2.03416
C          3.03825       -0.10776        2.49553
C          3.24664        1.10985        3.15425
H          2.46808        1.87573        3.13016
C          4.03549       -1.08864        2.58639
H          3.88113       -2.05431        2.09871
C          4.42548        1.35379        3.85578
H          4.56394        2.31067        4.36563
C          5.21666       -0.84678        3.28267
H          5.98115       -1.62593        3.33570
C          5.42017        0.37888        3.91680
H          6.34435        0.56788        4.46851
C          3.42949       -2.38167       -1.15458
H          2.46979       -2.88152       -1.31766
C          4.62137       -0.42257       -0.40676
O          4.55264        0.81116        0.11449
C          5.72018        1.52922        0.38940
H          6.36517        0.99302        1.10543
H          5.39666        2.47434        0.84263
H          6.29108        1.74645       -0.53072
C          4.62920       -2.99965       -1.50799
H          4.62363       -4.00320       -1.93814
C          5.82709       -1.03485       -0.76612
H          6.77291       -0.51370       -0.61685
C          5.82535       -2.31917       -1.30926
H          6.77658       -2.78451       -1.58033
C          1.80185        2.42080        0.27218
H          1.46998        2.22566        1.29055
C          2.33542        1.65080       -1.94385
O          2.42789        0.59148       -2.76931
C          2.92511        0.75664       -4.06497
H          2.27361        1.40647       -4.67565
H          2.95447       -0.24299       -4.51630
H          3.94606        1.17651       -4.05811
C          2.07543        3.73661       -0.10809
H          1.95677        4.54572        0.61555
C          2.61430        2.96313       -2.33272
H          2.93031        3.18262       -3.35288
C          2.49812        4.00117       -1.40522
H          2.73058        5.02348       -1.71380
