62
Cat639.ts34.5.log	Energy: -1107649.2382193
C         -0.97082       -3.89829       -0.14411
H         -0.42384       -4.61411        0.47500
H         -2.04587       -3.86228        0.05763
C         -0.51889       -3.68899       -1.48378
H          0.39592       -4.18080       -1.82642
H         -1.26902       -3.59451       -2.27717
H         -0.49224       -2.06895       -1.64697
Rh         0.06272       -2.02827       -0.11224
C         -2.07252        0.84659       -0.50143
C         -3.38837       -1.45042        0.69477
C         -1.57111        0.04473        2.22757
C          1.92815        0.88734        0.36970
C          3.31730       -1.19417       -1.13142
C          1.32907        0.34457       -2.40841
P          1.63828       -0.52299       -0.82300
P         -1.72891       -0.67379        0.54244
C          1.12319       -2.43888        1.38706
O          1.80139       -2.60647        2.30843
H         -1.14268        1.43377       -0.43299
H         -2.12853        0.47861       -1.53591
C         -3.25210        1.69025       -0.13135
C         -3.12409        2.64929        0.88262
H         -2.14623        2.79666        1.34867
C         -4.50401        1.53316       -0.76572
C         -4.69014        0.58212       -1.91384
H         -4.45157       -0.45576       -1.64010
H         -4.03869        0.84617       -2.76321
H         -5.72775        0.60188       -2.27415
C         -4.20412        3.42184        1.29918
H         -4.07347        4.16177        2.09233
C         -5.58038        2.31623       -0.33379
H         -6.54941        2.19420       -0.82582
C         -5.44506        3.24760        0.69255
H         -6.30475        3.84366        1.00743
H         -3.64713       -1.97512       -0.23606
H         -3.33176       -2.20247        1.49556
H         -4.17468       -0.71957        0.94033
H         -1.41512       -0.78990        2.92655
H         -0.67726        0.68399        2.27097
H         -2.45464        0.62374        2.53699
H          1.00156        1.48126        0.31886
H          1.94296        0.42472        1.36630
C          3.12848        1.74690        0.12403
C          3.05399        2.79794       -0.79907
H          2.09709        3.00869       -1.28435
C          4.35066        1.50278        0.78766
C          4.47203        0.44308        1.84558
H          4.16204       -0.55043        1.49137
H          3.83739        0.67495        2.71690
H          5.50749        0.36307        2.20338
C          4.16259        3.58457       -1.09947
H          4.07617        4.39869       -1.82289
C          5.45558        2.30117        0.47216
H          6.40312        2.11269        0.98450
C          5.37509        3.32805       -0.46541
H          6.25636        3.93342       -0.69003
H          3.64496       -1.77847       -0.26114
H          3.24181       -1.88552       -1.98335
H          4.05283       -0.40622       -1.35687
H          1.20661       -0.41873       -3.19032
H          0.39160        0.91437       -2.34233
H          2.15570        1.01721       -2.68161
