122
Cat654.ts34.5.log	Energy: -2163067.8473288
C         -0.54947       -2.90045       -2.00467
H         -0.12413       -3.87368       -1.74568
H         -1.63145       -2.90322       -2.17262
C          0.26620       -1.97192       -2.71198
H          1.31103       -2.21734       -2.92384
H         -0.19568       -1.37030       -3.49943
H          0.19304       -0.57962       -1.91746
Rh         0.13646       -1.46880       -0.55653
C         -1.97775        1.44066       -0.53543
C         -3.46465       -0.96283       -0.80751
C         -2.17571       -0.42957        1.80469
C          2.85346       -0.70227        1.62096
C          3.46195       -0.35337       -1.08708
C          1.54297        1.55811        0.11515
P          1.98459       -0.22848        0.03765
P         -1.89679       -0.34107       -0.01965
C          0.42691       -2.72936        0.79453
O          0.64755       -3.48974        1.63951
H         -1.27648        1.98012        0.11562
H         -1.50916        1.40723       -1.52584
C         -3.30183        2.14838       -0.60901
C         -4.35097        1.84111        0.26487
H         -4.21899        1.04268        0.99635
C         -3.50590        3.15386       -1.57887
C         -2.42654        3.52054       -2.55619
H         -2.15699        2.66300       -3.19499
H         -1.50470        3.83007       -2.04106
H         -2.74953        4.34103       -3.21235
C         -5.56976        2.51129        0.20733
H         -6.36922        2.24199        0.90253
C         -4.73651        3.81888       -1.62589
H         -4.88565        4.59799       -2.37936
C         -5.76681        3.51012       -0.74208
H         -6.71942        4.04233       -0.80188
C         -4.62019       -1.45217       -0.16234
O         -4.70618       -1.27193        1.16927
C         -5.75910       -1.82856        1.89540
H         -5.54638       -1.61799        2.95203
H         -6.73166       -1.37938        1.62569
H         -5.82336       -2.92216        1.75514
C         -3.47955       -0.97627       -2.21833
O         -2.42906       -0.37702       -2.82545
C         -2.43190       -0.22462       -4.21410
H         -1.52740        0.34525       -4.46636
H         -3.31679        0.33740       -4.56008
H         -2.39425       -1.19615       -4.73747
C         -4.52325       -1.55365       -2.94917
H         -4.50110       -1.56920       -4.03769
C         -5.66413       -2.04790       -0.88353
H         -6.53946       -2.43763       -0.36569
C         -5.60050       -2.10625       -2.26858
H         -6.41685       -2.56703       -2.82952
C         -2.16024        0.64483        2.70928
O         -2.02295        1.89780        2.20996
C         -2.62807        2.97460        2.86796
H         -2.62684        3.81270        2.15850
H         -3.66979        2.74348        3.14567
H         -2.07602        3.27946        3.77609
C         -2.30000       -1.72852        2.35185
O         -2.36962       -2.72204        1.45155
C         -2.49592       -4.04857        1.87210
H         -2.51841       -4.65770        0.95975
H         -3.43169       -4.20857        2.43702
H         -1.63612       -4.36085        2.48764
C         -2.39026       -1.94581        3.72789
H         -2.47493       -2.95626        4.12568
C         -2.27711        0.43756        4.09159
H         -2.27438        1.28907        4.77233
C         -2.38164       -0.85273        4.59045
H         -2.45833       -1.01332        5.66844
H          2.15857       -0.46902        2.43551
H          2.89887       -1.79535        1.53766
C          4.22152       -0.12052        1.84125
C          4.37214        1.23845        2.14472
H          3.48044        1.85703        2.22976
C          5.38001       -0.92096        1.73191
C          5.30108       -2.40032        1.48094
H          4.70040       -2.63807        0.59338
H          4.83303       -2.92390        2.33111
H          6.30453       -2.82507        1.33986
C          5.62565        1.81652        2.31752
H          5.70637        2.88079        2.55343
C          6.63456       -0.32204        1.89604
H          7.52880       -0.94442        1.80097
C          6.76901        1.03344        2.18227
H          7.76248        1.47143        2.30769
C          4.33312        0.70669       -1.41388
O          4.09407        1.89159       -0.83095
C          4.98498        2.95391       -0.99169
H          4.58801        3.77884       -0.38609
H          5.99382        2.69396       -0.62832
H          5.04997        3.28496       -2.04366
C          3.78622       -1.62757       -1.59681
O          3.06522       -2.65907       -1.11626
C          3.20699       -3.94240       -1.64970
H          2.44977       -4.56295       -1.15328
H          4.20772       -4.36402       -1.44755
H          3.02451       -3.95567       -2.73840
C          4.84106       -1.81747       -2.49860
H          5.06131       -2.80809       -2.89427
C          5.40088        0.52335       -2.30280
H          6.05818        1.35435       -2.55470
C          5.63210       -0.73205       -2.85019
H          6.46409       -0.87252       -3.54445
C          1.38790        2.26370       -1.09495
O          1.62857        1.55270       -2.21272
C          1.57494        2.17062       -3.46264
H          1.82927        1.39854       -4.20012
H          0.56665        2.56407       -3.68314
H          2.30463        2.99553       -3.54379
C          1.15271        2.21322        1.29589
O          1.17903        1.48342        2.43122
C          0.95681        2.09739        3.66815
H          1.05506        1.31010        4.42592
H         -0.05570        2.52253        3.73265
H          1.69996        2.88953        3.86787
C          0.75283        3.55699        1.28449
H          0.47121        4.05607        2.21029
C          1.00433        3.60656       -1.11833
H          0.93353        4.14917       -2.06012
C          0.69819        4.24546        0.08021
H          0.39044        5.29358        0.07065
