76
Cat676.ts34.5.log	Energy: -1348093.3387440
C          1.03002       -3.31841        0.31061
H          1.00992       -4.00073       -0.54355
H          2.01672       -3.19828        0.76933
C         -0.12883       -3.24698        1.14137
H         -1.03234       -3.79870        0.86538
H          0.01249       -3.19021        2.22692
H         -0.36065       -1.64117        1.35453
Rh         0.04151       -1.49328       -0.21159
C          1.84656        0.71766        2.00182
C          3.48685       -0.53250       -0.02275
C          1.74144        1.55504       -0.74558
C         -1.95282        0.92373       -1.81525
C         -3.39124       -0.81204       -0.02021
C         -1.68132        1.21374        1.06314
P         -1.73713       -0.04939       -0.26505
P          1.75818        0.03238        0.29317
C          0.00400       -1.86614       -2.05992
O         -0.02656       -2.05922       -3.19888
H          2.66843        1.44628        2.10110
H          0.90668        1.27595        2.14348
C          1.96557       -0.36868        3.06110
H          2.89402       -0.94355        2.90061
H          1.13788       -1.08381        2.92311
C          1.93707        0.19018        4.47474
H          2.77357        0.88604        4.64909
H          1.00310        0.74487        4.65897
H          2.00850       -0.61040        5.22677
C          3.68925       -1.56159       -0.94887
C          4.60209        0.05276        0.58982
C          6.08003       -1.40855       -0.64273
C          5.88878       -0.38618        0.28676
C          4.97736       -1.99184       -1.26343
H          2.81710       -2.02722       -1.41498
H          5.11793       -2.79398       -1.99208
H          7.09010       -1.75054       -0.88123
H          6.74914        0.07758        0.77580
H          4.47408        0.86672        1.30705
C          1.78115        2.85414       -0.22704
C          1.64089        1.39015       -2.13484
C          1.60427        3.78472       -2.45319
C          1.58108        2.49233       -2.98168
C          1.70533        3.96011       -1.07522
H          1.85383        3.01814        0.84887
H          1.72758        4.96750       -0.65136
H          1.54563        4.65148       -3.11586
H          1.50364        2.34171       -4.06120
H          1.58823        0.38088       -2.55125
H         -1.02651        1.51391       -1.92213
H         -1.90682        0.17214       -2.62071
C         -3.19199        1.79367       -1.96646
H         -3.29688        2.45929       -1.09349
H         -4.08889        1.15366       -1.96425
C         -3.14962        2.62526       -3.24010
H         -2.27966        3.30180       -3.24517
H         -3.07038        1.98341       -4.13199
H         -4.05528        3.24088       -3.35053
C         -3.56912       -2.13615       -0.43539
C         -4.47788       -0.11441        0.52356
C         -5.89168       -2.05084        0.22018
C         -5.71999       -0.73343        0.64587
C         -4.81522       -2.75041       -0.32312
H         -2.70604       -2.67658       -0.83695
H         -4.94308       -3.78430       -0.65297
H         -6.86674       -2.53444        0.31809
H         -6.56019       -0.18304        1.07645
H         -4.35007        0.91664        0.86194
C         -1.87564        0.79750        2.38910
C         -1.32227        2.54329        0.82132
C         -1.35768        3.01605        3.19312
C         -1.15848        3.43712        1.88135
C         -1.72210        1.69067        3.44389
H         -2.14145       -0.24348        2.59311
H         -1.87996        1.35027        4.47017
H         -1.22888        3.71637        4.02169
H         -0.86863        4.46997        1.67309
H         -1.14270        2.89145       -0.19677
