102
Cat653.ts34.5.log	Energy: -1687160.1479522
C         -1.16623       -3.13301       -1.82265
H         -0.90217       -4.11045       -1.41002
H         -2.24360       -2.96769       -1.93315
C         -0.27898       -2.53766       -2.76711
H          0.67070       -3.02693       -3.00131
H         -0.70690       -2.01030       -3.62769
H         -0.08388       -1.00946       -2.23952
Rh        -0.07441       -1.63325       -0.73947
C         -2.86707        0.30782       -1.73180
C         -3.21626       -1.04098        0.82232
C         -1.56880        1.25755        0.71602
C          1.90746        0.50336        1.17706
C          3.44257       -1.33236       -0.50576
C          2.15548        0.87960       -1.72547
P          1.85397       -0.40836       -0.45508
P         -1.90923       -0.27900       -0.22679
C          0.27254       -2.65463        0.80587
O          0.49504       -3.20107        1.79840
H         -2.21570        1.06229       -2.19926
H         -2.84533       -0.55986       -2.40626
C         -4.26028        0.81858       -1.53392
C         -4.47835        2.16799       -1.22750
H         -3.62575        2.84750       -1.18264
C         -5.36955       -0.05285       -1.60458
C         -5.20859       -1.50343       -1.95258
H         -4.60407       -2.03212       -1.19941
H         -4.70911       -1.63696       -2.92591
H         -6.18489       -2.00362       -2.00738
C         -5.75300        2.65923       -0.96097
H         -5.89064        3.71553       -0.71827
C         -6.64459        0.45821       -1.33930
H         -7.50173       -0.21882       -1.39185
C         -6.84489        1.79670       -1.01089
H         -7.85284        2.16532       -0.80548
C         -3.19594       -2.42167        1.05023
H         -2.37662       -3.01558        0.64084
C         -4.25751       -0.27648        1.36090
H         -4.27270        0.80469        1.20302
C         -4.21359       -3.01991        1.78876
H         -4.19286       -4.09738        1.96918
C         -5.29259       -0.86509        2.09446
C         -6.41840       -0.01987        2.61430
H         -6.04040        0.83263        3.19968
H         -7.00234        0.39886        1.77871
H         -7.10027       -0.59859        3.25312
C         -5.25623       -2.24865        2.29916
H         -6.05501       -2.72653        2.87350
C         -1.29895        2.48434        0.10068
H         -1.40038        2.59622       -0.98035
C         -1.38707        1.15161        2.10339
H         -1.58267        0.19315        2.59333
C         -0.86630        3.57154        0.85993
H         -0.66512        4.52716        0.36883
C         -0.93618        2.22458        2.87416
C         -0.68198        2.05953        4.34381
H         -1.25588        1.21988        4.76041
H          0.38603        1.85601        4.53019
H         -0.94245        2.96916        4.90474
C         -0.68054        3.44498        2.23320
H         -0.33102        4.30001        2.81793
H          1.15853        1.30198        1.07522
H          1.47324       -0.21505        1.88532
C          3.21899        1.03683        1.65740
C          3.63658        2.31814        1.27644
H          2.97169        2.93114        0.66487
C          4.06661        0.24957        2.46739
C          3.65898       -1.11842        2.92939
H          3.49779       -1.80198        2.08167
H          2.71739       -1.09311        3.50133
H          4.43063       -1.56066        3.57389
C          4.88141        2.81748        1.64878
H          5.18600        3.81766        1.33170
C          5.31131        0.77001        2.83828
H          5.96935        0.16026        3.46368
C          5.72803        2.03516        2.43030
H          6.70824        2.41202        2.73247
C          3.42764       -2.73086       -0.53233
H          2.46453       -3.24659       -0.57478
C          4.67006       -0.65964       -0.48523
H          4.69132        0.43282       -0.49300
C          4.62708       -3.43791       -0.50543
H          4.61545       -4.53037       -0.52498
C          5.88141       -1.35717       -0.44554
C          7.17762       -0.60451       -0.37312
H          7.26856        0.11350       -1.20308
H          7.23314       -0.02256        0.56095
H          8.04331       -1.28062       -0.40934
C          5.84142       -2.75602       -0.45208
H          6.77912       -3.31829       -0.42290
C          2.79977        0.52599       -2.91928
H          3.20402       -0.48137       -3.04332
C          1.64567        2.17180       -1.59204
H          1.12584        2.45690       -0.67660
C          2.92850        1.45922       -3.94220
H          3.43584        1.17998       -4.86897
C          1.76820        3.12202       -2.61318
C          1.19656        4.49942       -2.43328
H          0.09427        4.47354       -2.41784
H          1.52145        4.94747       -1.48145
H          1.50040        5.17299       -3.24667
C          2.41883        2.74902       -3.79191
H          2.52924        3.47634       -4.60087
