94
Cat657.ts34.5.log	Energy: -2026266.6077141
C         -0.72585        1.61955       -3.79962
H         -0.58394        1.05658       -4.72522
H         -1.75669        1.93483       -3.61522
C          0.34638        2.42952       -3.32978
H          1.30843        2.41128       -3.84891
H          0.11282        3.40317       -2.88414
H          0.45691        2.04539       -1.73965
Rh         0.17695        0.51428       -2.18862
C         -2.03660        1.64445        0.42280
O         -3.10972        0.11657       -1.54830
O         -1.50650       -1.07116        0.11478
C          1.82943       -1.82596       -0.21257
O          3.34123        0.27897       -1.27434
O          1.75832        0.61614        0.75629
P          1.80341       -0.07981       -0.77362
P         -1.62005        0.31563       -0.81534
C          0.26234       -1.09602       -3.20206
O          0.25498       -2.09878       -3.76526
H         -1.41613        1.42575        1.30404
H         -1.60145        2.54812       -0.02907
C         -3.47077        1.84717        0.79961
C         -3.97845        1.28045        1.97388
H         -3.31006        0.70953        2.62136
C         -4.32543        2.61146       -0.02431
C         -3.82355        3.25545       -1.28269
H         -3.48414        2.49468       -2.00255
H         -2.97241        3.92788       -1.08600
H         -4.61227        3.84903       -1.76422
C         -5.31609        1.42775        2.32936
H         -5.68826        0.96827        3.24781
C         -5.66504        2.75655        0.35230
H         -6.32948        3.34753       -0.28398
C         -6.16690        2.16582        1.51066
H         -7.21920        2.29212        1.77607
C         -3.94711       -0.95631       -1.43731
C         -5.20359       -0.77646       -0.85755
H         -5.47961        0.20878       -0.47930
C         -3.56313       -2.21098       -1.91685
H         -2.57908       -2.33647       -2.37181
C         -6.07791       -1.85501       -0.74935
H         -7.06505       -1.74009       -0.29820
C         -4.43166       -3.29299       -1.79989
H         -4.15426       -4.28497       -2.16061
C         -5.67954       -3.10211       -1.21675
F         -6.51257       -4.13739       -1.10639
C         -1.89110       -1.30720        1.40520
C         -3.07958       -1.98282        1.68450
H         -3.73132       -2.28936        0.86716
C         -1.03349       -0.93443        2.44263
H         -0.08958       -0.44536        2.19321
C         -3.42702       -2.24938        3.00529
H         -4.35395       -2.77080        3.25019
C         -1.38087       -1.19367        3.76648
H         -0.72930       -0.90942        4.59481
C         -2.58085       -1.84326        4.03152
F         -2.92023       -2.09379        5.29473
H          0.85980       -1.92745        0.30127
H          1.73756       -2.40632       -1.14183
C          2.97686       -2.28224        0.63492
C          2.93308       -2.09475        2.02018
H          2.03804       -1.65517        2.46585
C          4.11447       -2.87262        0.04758
C          4.17990       -3.14194       -1.42787
H          3.95552       -2.24453       -2.02281
H          3.45367       -3.91710       -1.72532
H          5.17921       -3.49260       -1.71809
C          4.00908       -2.44820        2.82832
H          3.95769       -2.29084        3.90820
C          5.18819       -3.21702        0.87386
H          6.07929       -3.66110        0.42259
C          5.14761       -3.00293        2.24929
H          6.00490       -3.27696        2.86852
C          4.57756        0.19079       -0.67976
C          4.80093        0.38617        0.68402
H          3.96923        0.58297        1.35642
C          5.64949       -0.06511       -1.53599
H          5.45207       -0.19223       -2.60164
C          6.09309        0.28539        1.19042
H          6.28744        0.41281        2.25641
C          6.94215       -0.16269       -1.03085
H          7.79313       -0.36888       -1.68237
C          7.14809        0.00619        0.33241
F          8.38326       -0.09811        0.82541
C          1.64401        1.95912        0.97898
C          1.00899        2.36225        2.15588
H          0.63416        1.60528        2.84642
C          2.15702        2.91826        0.10050
H          2.68742        2.60794       -0.80041
C          0.85815        3.71437        2.44562
H          0.36039        4.04727        3.35792
C          2.00131        4.27315        0.38602
H          2.39384        5.03814       -0.28618
C          1.34829        4.65738        1.54957
F          1.19883        5.95327        1.81903
