88
Cat680.ts34.5.log	Energy: -1446702.2219820
C          0.93988       -3.39196        0.72044
H          0.94727       -4.15338       -0.06445
H          1.89953       -3.25997        1.23061
C         -0.26505       -3.20909        1.46684
H         -1.16898       -3.75682        1.18380
H         -0.18725       -3.06134        2.55049
H         -0.43086       -1.59100        1.52171
Rh         0.04688       -1.60018       -0.02925
C          1.73286        0.87172        1.99449
C          3.49252       -0.62625        0.25905
C          1.77007        1.32065       -0.84123
C         -1.68488        0.82165       -1.90650
C         -3.37474       -0.85608       -0.26572
C         -1.77581        1.15825        0.97756
P         -1.69153       -0.12681       -0.32698
P          1.75124       -0.04195        0.39328
C          0.12829       -2.12034       -1.84033
O          0.18558       -2.39269       -2.96208
H          2.52699        1.63694        2.02644
H          0.77008        1.40802        2.01585
C          1.82567       -0.05586        3.19726
H          2.78382       -0.60284        3.17161
H          1.03631       -0.82116        3.10970
C          1.68412        0.68556        4.51719
H          2.47701        1.44084        4.64103
H          0.71620        1.20974        4.56926
H          1.74236       -0.00156        5.37523
C          3.75457       -1.79094       -0.46753
H          2.91385       -2.34397       -0.89457
C          4.57591        0.07129        0.80866
H          4.41004        0.99592        1.36676
C          5.06104       -2.24257       -0.64474
H          5.24077       -3.15258       -1.22421
C          5.87655       -0.39055        0.64118
H          6.70687        0.17107        1.07942
C          6.14460       -1.55685       -0.08861
C          7.54969       -2.06037       -0.24350
H          8.25567       -1.23526       -0.42138
H          7.88415       -2.58199        0.66886
H          7.63413       -2.77019       -1.07852
C          1.56107        2.66495       -0.52442
H          1.45637        2.97923        0.51480
C          1.90507        0.97478       -2.19546
H          2.05705       -0.07205       -2.47067
C          1.45419        3.62681       -1.53212
H          1.27557        4.67080       -1.25783
C          1.81574        1.93674       -3.19090
H          1.91943        1.63617       -4.23745
C          1.57113        3.28388       -2.88024
C          1.43143        4.30773       -3.96811
H          2.30440        4.30035       -4.63949
H          0.54507        4.10518       -4.59148
H          1.32786        5.32200       -3.55761
H         -0.76522        1.43007       -1.87567
H         -1.49700        0.06425       -2.68498
C         -2.90074        1.66308       -2.26623
H         -3.16899        2.32689       -1.42753
H         -3.77087        1.00297       -2.41231
C         -2.65962        2.49567       -3.51712
H         -1.81923        3.19408       -3.37192
H         -2.40734        1.85588       -4.37784
H         -3.54758        3.08715       -3.78777
C         -3.53910       -2.18689       -0.66139
H         -2.65199       -2.76164       -0.94573
C         -4.50468       -0.12825        0.12811
H         -4.39831        0.90995        0.45242
C         -4.80355       -2.76978       -0.67986
H         -4.91155       -3.81033       -0.99901
C         -5.76387       -0.72007        0.11796
H         -6.63455       -0.13617        0.43031
C         -5.93740       -2.04999       -0.28686
C         -7.29373       -2.69164       -0.26410
H         -7.51450       -3.10804        0.73319
H         -8.08728       -1.96628       -0.49617
H         -7.36110       -3.51843       -0.98568
C         -1.47637        2.50328        0.75323
H         -1.26698        2.86228       -0.25493
C         -2.02523        0.74648        2.29615
H         -2.25557       -0.30364        2.49675
C         -1.40572        3.40490        1.81770
H         -1.15656        4.45056        1.61578
C         -1.96539        1.64850        3.34875
H         -2.16281        1.30020        4.36667
C         -1.64039        2.99712        3.13181
C         -1.53324        3.95218        4.28356
H         -2.43490        3.92227        4.91477
H         -0.67845        3.69415        4.93032
H         -1.39198        4.98628        3.93977
