76
Cat6.ts34.5.log	Energy: -1253129.5618332
C          0.62350       -3.17277        1.58409
H          1.03773       -3.95852        0.94695
H          1.22004       -2.96261        2.47808
C         -0.79691       -3.04533        1.65990
H         -1.43030       -3.67552        1.02947
H         -1.25219       -2.82568        2.63148
H         -1.06912       -1.40583        1.48270
Rh         0.11189       -1.47125        0.37454
C          0.94522        0.43671        3.26821
O          2.97579       -0.23818        1.79627
O          1.35556        1.54928        0.82243
C         -0.27602        1.05636       -2.00628
O         -2.41407       -0.38839       -1.59687
O         -1.69561        1.18854        0.33413
P         -1.09765        0.07712       -0.71786
P          1.36468        0.05445        1.53587
C          0.93277       -2.15300       -1.19641
O          1.44924       -2.51332       -2.16365
H         -0.02656        0.95096        3.28482
H          0.84203       -0.52281        3.79525
H          1.71281        1.03534        3.77895
C          3.68281       -1.10856        0.92556
H          4.61024       -1.37652        1.45621
H          3.09748       -2.03351        0.77693
C          3.99166       -0.48337       -0.41890
H          3.03916       -0.17643       -0.88392
H          4.57949        0.43761       -0.26852
C          4.73116       -1.42525       -1.35662
H          4.15135       -2.35764       -1.46453
H          5.69638       -1.71425       -0.90360
C          4.96517       -0.81907       -2.73070
H          4.00698       -0.58646       -3.22194
H          5.54079        0.11860       -2.66423
H          5.51803       -1.50521       -3.38981
C          1.94260        2.72539        1.35187
H          1.23841        3.54614        1.12959
H          2.03036        2.66393        2.44882
C          3.29728        3.01645        0.73735
H          3.68242        3.94705        1.19149
H          3.99321        2.21394        1.03199
C          3.26811        3.15386       -0.77786
H          2.56341        3.95823       -1.05626
H          2.85583        2.22764       -1.20909
C          4.63470        3.43398       -1.38059
H          5.06369        4.37133       -0.99098
H          5.34563        2.62570       -1.14462
H          4.58502        3.51981       -2.47659
H          0.54314        1.62737       -1.54878
H          0.14679        0.33771       -2.72230
H         -0.97538        1.71646       -2.53808
C         -2.97205       -1.68553       -1.43378
H         -3.31644       -1.99920       -2.43274
H         -2.17485       -2.37787       -1.10909
C         -4.11737       -1.69689       -0.44378
H         -4.41963       -2.74703       -0.28117
H         -3.74107       -1.33273        0.52904
C         -5.31781       -0.87402       -0.88620
H         -5.71813       -1.29888       -1.82384
H         -4.97171        0.14016       -1.14195
C         -6.41909       -0.80142        0.15766
H         -6.79410       -1.80492        0.41640
H         -6.05397       -0.33863        1.08885
H         -7.27517       -0.20610       -0.19421
C         -1.90406        2.56280        0.06923
H         -1.78143        3.07262        1.03942
H         -1.11529        2.95191       -0.59433
C         -3.27824        2.85401       -0.50015
H         -3.31891        3.92773       -0.75775
H         -3.40122        2.30059       -1.44761
C         -4.41321        2.50855        0.45263
H         -4.26948        3.06294        1.39719
H         -4.33706        1.44164        0.71777
C         -5.78884        2.81335       -0.11548
H         -5.89813        3.88495       -0.34847
H         -5.96780        2.25561       -1.04857
H         -6.58841        2.54183        0.58999
