110
Cat663.ts34.5.log	Energy: -1502045.9460997
C         -1.08447        0.40620       -3.43599
H         -0.88070       -0.34679       -4.20161
H         -2.14903        0.63797       -3.31493
C         -0.13632        1.46161       -3.25800
H          0.79693        1.44788       -3.82857
H         -0.51361        2.47789       -3.09328
H          0.07909        1.53321       -1.65177
Rh         0.01296       -0.09646       -1.67018
C         -2.69258        1.62720       -0.15223
C         -3.22231       -1.18340       -0.95171
C         -1.75810       -0.59453        1.45870
C          2.60924       -1.56251        0.22091
C          3.27916        0.93661       -1.24916
C          1.75882        1.01071        1.20760
P          1.90091        0.06302       -0.37036
P         -1.89399       -0.06159       -0.30506
C          0.35688       -1.87597       -2.16890
O          0.57257       -2.98420       -2.41864
H         -1.99055        2.18352        0.48983
H         -2.60216        2.07188       -1.15324
C         -4.08798        1.72651        0.37779
C         -4.30897        1.67473        1.76060
H         -3.44681        1.63225        2.43132
C         -5.19848        1.83567       -0.48713
C         -5.02952        1.96788       -1.97382
H         -4.50000        1.10854       -2.41196
H         -4.44891        2.86713       -2.23648
H         -6.00481        2.04347       -2.47346
C         -5.59398        1.66822        2.29454
H         -5.73673        1.61667        3.37646
C         -6.48376        1.83017        0.06549
H         -7.34451        1.90738       -0.60476
C         -6.69143        1.73216        1.43954
H         -7.70772        1.72363        1.84012
H         -2.67869       -2.07951       -1.29532
H         -3.57736       -0.70295       -1.87620
C         -4.37883       -1.58295       -0.04456
H         -3.98079       -2.14288        0.81819
H         -4.87288       -0.69303        0.37530
C         -5.44227       -2.45297       -0.72295
H         -4.93076       -3.33062       -1.16213
C         -6.43980       -2.95658        0.31435
H         -5.93901       -3.52925        1.11075
H         -7.20280       -3.60745       -0.14041
H         -6.96179       -2.11002        0.79114
C         -6.16428       -1.71655       -1.84643
H         -6.93509       -2.35421       -2.30639
H         -5.47911       -1.40370       -2.64854
H         -6.66231       -0.81289       -1.45743
H         -2.74504       -0.56595        1.94894
H         -1.12825        0.16049        1.95549
C         -1.14050       -1.98060        1.56947
H         -1.77351       -2.70330        1.02664
H         -0.17759       -1.98441        1.02994
C         -0.93787       -2.49971        2.99507
H         -1.92393       -2.48767        3.49686
C         -0.44469       -3.94193        2.96170
H         -1.13975       -4.59247        2.40868
H         -0.33048       -4.35380        3.97636
H          0.53707       -4.00784        2.46321
C          0.00864       -1.62623        3.81086
H          0.12930       -2.01863        4.83228
H         -0.35113       -0.59021        3.89794
H          1.01097       -1.59839        3.35051
H          1.90204       -1.89001        0.99888
H          2.48188       -2.25989       -0.61669
C          4.01209       -1.57580        0.74233
C          4.27076       -1.18498        2.06240
H          3.42954       -0.93487        2.71407
C          5.09216       -1.95262       -0.08463
C          4.87455       -2.45704       -1.48287
H          4.32512       -1.73887       -2.10908
H          4.28632       -3.38916       -1.48685
H          5.83295       -2.66485       -1.97763
C          5.56907       -1.10241        2.55706
H          5.74306       -0.78479        3.58774
C          6.39086       -1.86665        0.42857
H          7.22951       -2.15188       -0.21273
C          6.63888       -1.43226        1.72893
H          7.66517       -1.36951        2.09808
H          2.77553        1.73147       -1.82405
H          3.62598        0.21867       -2.00822
C          4.43579        1.51875       -0.44634
H          4.04603        2.29238        0.23617
H          4.89250        0.74996        0.19581
C          5.53796        2.15247       -1.30178
H          5.06394        2.90693       -1.95852
C          6.54191        2.86932       -0.40578
H          6.05432        3.64134        0.21005
H          7.33330        3.35789       -0.99525
H          7.02708        2.15415        0.27940
C          6.24428        1.13184       -2.18796
H          7.04084        1.60718       -2.78109
H          5.55641        0.64519       -2.89549
H          6.70668        0.34218       -1.57296
H          2.74343        1.05213        1.70102
H          1.09793        0.41302        1.85424
C          1.20218        2.41129        1.00554
H          1.84841        2.96160        0.29970
H          0.22207        2.33665        0.50341
C          1.06067        3.24700        2.28010
H          2.05630        3.29659        2.76031
C          0.63665        4.66872        1.92939
H          1.35067        5.14329        1.23842
H          0.56371        5.30197        2.82704
H         -0.35153        4.67141        1.43925
C          0.09105        2.62670        3.27980
H          0.00556        3.24526        4.18636
H          0.40640        1.62167        3.59699
H         -0.91889        2.54146        2.84345
