106
Cat665.ts34.5.log	Energy: -1875902.6709248
C         -0.85768        2.75201       -3.04649
H         -0.69873        2.57292       -4.11265
H         -1.90096        2.92392       -2.76679
C          0.18077        3.38610       -2.30705
H          1.13629        3.60708       -2.79032
H         -0.09666        4.11734       -1.53906
H          0.33092        2.45146       -0.96466
Rh         0.10974        1.18085       -1.94242
C         -1.95872        1.12778        0.99235
O         -3.17176        0.60495       -1.39450
O         -1.55856       -1.20627       -0.46595
C          1.93732       -1.64586       -1.06251
O          3.29035        0.80011       -1.13840
O          1.71086        0.15302        0.82299
P          1.78528        0.17220       -0.85536
P         -1.65402        0.44292       -0.71339
C          0.23041        0.05466       -3.47226
O          0.24808       -0.66288       -4.37107
H         -1.31675        0.53828        1.66200
H         -1.49603        2.12439        0.94455
C         -3.36210        1.19345        1.50595
C         -3.85314        0.19256        2.35164
H         -3.19627       -0.62997        2.64162
C         -4.20367        2.26836        1.14595
C         -3.71599        3.36846        0.25023
H         -3.44306        2.97273       -0.74039
H         -2.82298        3.86519        0.66419
H         -4.48966        4.13509        0.10790
C         -5.16324        0.22224        2.82147
H         -5.52380       -0.57657        3.47369
C         -5.51445        2.28726        1.63443
H         -6.16858        3.11797        1.35566
C         -6.00126        1.27364        2.45805
H         -7.03183        1.31140        2.81930
C         -4.06573       -0.40008       -1.64626
C         -5.25797       -0.43542       -0.92875
H         -5.43838        0.32857       -0.17135
C         -3.78655       -1.36385       -2.61773
H         -2.84647       -1.31879       -3.17020
C         -6.19232       -1.45237       -1.15295
C         -7.47174       -1.47671       -0.36815
H         -7.28582       -1.26241        0.69515
H         -8.17258       -0.70834       -0.73402
H         -7.97552       -2.45061       -0.44526
C         -4.71240       -2.37866       -2.84005
H         -4.49991       -3.14590       -3.58837
C         -5.90229       -2.42872       -2.11252
H         -6.61595       -3.23695       -2.29245
C         -1.88501       -1.95009        0.63473
C         -0.97267       -2.01599        1.68846
H         -0.03743       -1.45800        1.60030
C         -3.07062       -2.68244        0.67233
H         -3.76363       -2.64019       -0.16741
C         -1.24887       -2.77621        2.82939
C         -0.28300       -2.79516        3.97899
H         -0.45434       -1.93807        4.65189
H         -0.38832       -3.70866        4.58106
H          0.75909       -2.73330        3.63141
C         -3.34234       -3.44948        1.80184
H         -4.27021       -4.02483        1.84461
C         -2.45182       -3.49027        2.87466
H         -2.68647       -4.09533        3.75421
H          0.98551       -2.01969       -0.65100
H          1.88092       -1.80286       -2.14894
C          3.12540       -2.31777       -0.44764
C          3.07551       -2.72271        0.89013
H          2.14767       -2.58157        1.44878
C          4.30700       -2.51289       -1.19092
C          4.38494       -2.14295       -2.64388
H          4.06999       -1.10493       -2.82332
H          3.73377       -2.79010       -3.25553
H          5.41095       -2.24947       -3.02032
C          4.18343       -3.28910        1.51227
H          4.12454       -3.60015        2.55818
C          5.41405       -3.07365       -0.54719
H          6.33930       -3.20952       -1.11296
C          5.36353       -3.45472        0.79103
H          6.24644       -3.88722        1.26775
C          4.53579        0.60961       -0.58862
C          4.75213        0.27304        0.74509
H          3.90747        0.09894        1.40813
C          5.61463        0.82920       -1.44800
H          5.41575        1.11231       -2.48288
C          6.05555        0.12279        1.23194
C          6.26771       -0.26515        2.66602
H          5.70666        0.39590        3.34447
H          5.91132       -1.29225        2.84408
H          7.32984       -0.22038        2.94442
C          6.90915        0.68030       -0.96519
H          7.75625        0.84670       -1.63519
C          7.13221        0.32462        0.36453
H          8.15359        0.20805        0.73532
C          1.53812        1.25444        1.61019
C          1.88947        2.53870        1.19651
H          2.35312        2.68569        0.21969
C          1.00504        1.04368        2.88504
H          0.76275        0.02865        3.20287
C          1.66422        3.63978        2.03290
C          2.04555        5.01466        1.56660
H          3.13732        5.09970        1.44494
H          1.59523        5.24279        0.58789
H          1.72399        5.78676        2.27899
C          0.78803        2.13431        3.71814
H          0.36141        1.97595        4.71137
C          1.10097        3.42609        3.29356
H          0.91748        4.27687        3.95417
