100
Cat64.ts34.5.log	Energy: -1450325.5570562
C          2.21991        0.26794       -3.51827
H          1.60503        0.48312       -4.39592
H          2.93835        1.05697       -3.27635
C          2.57635       -1.09338       -3.26620
H          2.15617       -1.88391       -3.89353
H          3.59711       -1.31423       -2.93384
H          2.29525       -1.27743       -1.65765
Rh         0.95355       -0.39062       -1.91130
C          0.70705        2.97432       -0.86495
O          1.11889        1.14377        1.09507
O          3.02507        1.95414       -0.45247
C         -1.41594       -1.25460        0.52319
O         -0.99134       -2.99960       -1.50723
O          0.67517       -2.91831        0.35167
P         -0.14979       -1.89127       -0.63561
P          1.47982        1.34648       -0.52086
C         -0.60487        0.00482       -2.91965
O         -1.52690        0.26334       -3.55866
H          1.13371        3.71012       -0.16203
H          1.06108        3.26189       -1.86851
C         -0.81283        2.95502       -0.80593
H         -1.20212        2.35643       -1.64478
H         -1.14130        2.43365        0.10951
C         -1.43787        4.34215       -0.83738
H         -1.12562        4.86661       -1.75852
H         -1.03578        4.94526       -0.00180
C         -2.95724        4.31876       -0.75269
H         -3.35538        3.71213       -1.58497
H         -3.25633        3.78926        0.16967
C         -3.58977        5.70035       -0.77533
H         -4.68692        5.64595       -0.70858
H         -3.33916        6.23936       -1.70313
H         -3.23520        6.31580        0.06735
C          1.46746        2.08011        2.10612
H          1.89660        1.49164        2.93627
H          2.26381        2.75052        1.74290
C          0.27341        2.87042        2.60649
H          0.62844        3.54709        3.40394
H         -0.10171        3.52407        1.80204
C         -0.86097        2.00065        3.12666
H         -0.50833        1.42711        4.00224
H         -1.10628        1.25006        2.35826
C         -2.10857        2.78871        3.48775
H         -1.90165        3.54209        4.26476
H         -2.50601        3.32368        2.60950
H         -2.90823        2.13266        3.86382
C          4.18016        1.19414       -0.74925
H          3.88691        0.18998       -1.10545
H          4.70587        1.70365       -1.57403
C          5.08716        1.08026        0.45967
H          6.08656        0.75652        0.11958
H          5.21904        2.09006        0.88615
C          4.56465        0.12266        1.51951
H          4.57860       -0.90199        1.10829
H          3.50451        0.34671        1.71191
C          5.34484        0.16396        2.82188
H          6.40810       -0.07944        2.66465
H          5.30204        1.16575        3.27913
H          4.94576       -0.55268        3.55639
H         -1.81754       -2.10665        1.09361
H         -0.85844       -0.61386        1.22618
C         -2.52545       -0.46527       -0.15309
H         -2.08431        0.39963       -0.67148
H         -2.99327       -1.07906       -0.94168
C         -3.59126        0.02258        0.81674
H         -3.11702        0.65543        1.58791
H         -4.02187       -0.83843        1.36051
C         -4.70604        0.80678        0.13985
H         -4.25948        1.61798       -0.46011
H         -5.22169        0.15160       -0.58395
C         -5.71133        1.39116        1.11840
H         -6.50887        1.94624        0.60148
H         -5.22318        2.08693        1.82057
H         -6.19103        0.60227        1.72025
C         -1.10815       -4.38270       -1.20596
H         -1.50525       -4.83805       -2.12715
H         -0.10756       -4.80442       -1.02267
C         -2.02045       -4.69048       -0.03358
H         -2.01830       -5.78582        0.11009
H         -1.57361       -4.27193        0.88423
C         -3.44899       -4.19431       -0.20468
H         -3.91672       -4.72298       -1.05372
H         -3.42702       -3.13225       -0.49557
C         -4.29669       -4.36522        1.04483
H         -4.35472       -5.42167        1.35333
H         -3.87265       -3.80110        1.89200
H         -5.32556       -4.00621        0.89035
C          1.91758       -2.64577        0.96852
H          2.41312       -3.62342        1.08789
H          2.53680       -2.02706        0.29492
C          1.75015       -1.95848        2.30920
H          2.75416       -1.82925        2.74918
H          1.36199       -0.94114        2.13270
C          0.85252       -2.70229        3.28668
H          1.28084       -3.69879        3.49589
H         -0.12057       -2.89099        2.80465
C          0.64377       -1.94252        4.58630
H          1.60040       -1.75464        5.10073
H          0.17526       -0.96261        4.39885
H         -0.00563       -2.49379        5.28315
