92
Cat693.ts34.5.log	Energy: -1635357.0101073
C          0.67654       -3.38934        0.93659
H          0.50823       -4.16884        0.18837
H          1.65413       -3.43632        1.42715
C         -0.44775       -2.93367        1.69145
H         -1.44764       -3.29882        1.44098
H         -0.31937       -2.76152        2.76753
H         -0.31903       -1.35060        1.65725
Rh         0.10899       -1.49792        0.09608
C          2.53293        0.33489        2.09335
C          3.62371       -0.98936       -0.18142
C          2.08887        1.29888       -0.68162
C         -1.28414        1.05523       -1.83166
C         -3.11756       -0.99737       -0.90433
C         -2.21746        1.07467        0.93332
P         -1.62987       -0.05352       -0.39936
P          2.05017       -0.20215        0.38688
C          0.16887       -2.05460       -1.70368
O          0.20631       -2.33027       -2.82426
H          3.41040        0.99472        2.04345
H          1.69608        0.93021        2.48333
C          2.79042       -0.86891        2.98858
H          3.61460       -1.47293        2.57231
H          1.90150       -1.52223        2.97820
C          3.11870       -0.47014        4.41909
H          4.01912        0.16365        4.46006
H          2.29319        0.10278        4.87211
H          3.30123       -1.35118        5.05356
C          3.59997       -2.30659       -0.63787
H          2.63771       -2.82309       -0.63549
C          4.85581       -0.29577       -0.20269
O          4.84449        0.98162        0.22810
C          5.96985        1.78872        0.03425
H          6.83449        1.44492        0.62921
H          5.68985        2.79703        0.36490
H          6.26048        1.82939       -1.02971
C          4.75145       -2.94700       -1.09881
H          4.70070       -3.97871       -1.45237
C          6.01175       -0.92915       -0.66949
H          6.96340       -0.39743       -0.69095
C          5.95432       -2.25184       -1.11046
H          6.86713       -2.73324       -1.47054
C          2.43588        1.11708       -2.02455
H          2.75043        0.12346       -2.35403
C          1.64648        2.57571       -0.28181
O          1.26689        2.71911        1.00739
C          0.74942        3.94603        1.43584
H          1.48732        4.76082        1.33037
H          0.49650        3.82695        2.49604
H         -0.16975        4.21464        0.88677
C          2.38103        2.15747       -2.94912
H          2.65858        1.97818       -3.98982
C          1.59367        3.62680       -1.20527
H          1.25525        4.61498       -0.89416
C          1.96363        3.41756       -2.53324
H          1.91346        4.24801       -3.24149
H         -0.32805        1.52947       -1.56290
H         -1.02822        0.37741       -2.66393
C         -2.28850        2.10979       -2.26878
H         -2.46121        2.80978       -1.43509
H         -3.26494        1.64523       -2.47428
C         -1.80132        2.87559       -3.49008
H         -0.83164        3.35913       -3.29344
H         -1.65955        2.20303       -4.35164
H         -2.51811        3.65569       -3.79050
C         -3.45149       -1.18851       -2.24419
H         -2.86075       -0.70098       -3.02171
C         -3.88152       -1.66308        0.07684
O         -3.49966       -1.45631        1.35414
C         -4.20475       -2.05702        2.39908
H         -5.26215       -1.73840        2.41670
H         -3.71974       -1.73158        3.32815
H         -4.16609       -3.15939        2.34087
C         -4.52259       -2.00256       -2.61854
H         -4.76045       -2.13734       -3.67573
C         -4.95839       -2.47175       -0.28891
H         -5.55117       -2.98137        0.47136
C         -5.27574       -2.63803       -1.63899
H         -6.11735       -3.27710       -1.91666
C         -1.38007        1.28728        2.02623
H         -0.41285        0.78188        2.02613
C         -3.49130        1.68455        0.93993
O         -4.29129        1.42932       -0.10957
C         -5.60311        1.90932       -0.12870
H         -6.18217        1.54970        0.73979
H         -6.06082        1.51926       -1.04663
H         -5.63848        3.01305       -0.14921
C         -1.75981        2.09227        3.10088
H         -1.08349        2.23089        3.94743
C         -3.87926        2.49382        2.01372
H         -4.86274        2.96424        2.02159
C         -3.01173        2.69580        3.08720
H         -3.33199        3.32588        3.92097
