88
Cat696.ts34.5.log	Energy: -1695673.1134529
C          1.79759       -3.44617       -2.00178
H          1.64914       -3.59576       -3.07419
H          2.84131       -3.50918       -1.68047
C          0.78017       -3.90748       -1.11499
H         -0.13360       -4.34737       -1.52727
H          1.08919       -4.37953       -0.17503
H          0.43813       -2.67692       -0.13096
Rh         0.70171       -1.69410       -1.41477
C          2.14912       -0.10013        1.54892
C          3.99887       -1.56044       -0.11806
C          3.05419        1.01343       -0.91573
C         -1.91187        0.62946       -1.85061
C         -2.71360       -2.11085       -1.09228
C         -1.50891       -0.27131        0.92840
P         -1.36458       -0.82122       -0.85666
P          2.39638       -0.58860       -0.21830
C          0.67470       -0.98728       -3.14835
O          0.66642       -0.51207       -4.20264
H          3.07654        0.35098        1.94317
H          1.39620        0.70646        1.53645
C          1.67629       -1.23724        2.44336
H          2.46120       -2.01015        2.51016
H          0.81920       -1.73784        1.96244
C          1.29483       -0.77104        3.83932
H          2.14230       -0.28145        4.34523
H          0.46932       -0.04195        3.80012
H          0.96775       -1.61079        4.47117
H          3.72804       -2.51544        0.35943
H          4.24623       -1.79749       -1.16427
C          5.15815       -0.91772        0.57414
C          6.08410       -0.14345       -0.14038
H          5.97806       -0.04546       -1.22389
C          5.34391       -1.04280        1.95849
H          4.65413       -1.65865        2.54059
C          7.14416        0.49684        0.49553
H          7.86705        1.09656       -0.06043
C          6.39789       -0.41008        2.61222
H          6.54582       -0.51007        3.68902
C          7.28530        0.35935        1.87060
F          8.29611        0.96893        2.48837
H          3.93454        1.31233       -0.32551
H          3.39993        0.76637       -1.93153
C          2.06045        2.13300       -0.96153
C          1.24464        2.33462       -2.08191
H          1.33561        1.66889       -2.94218
C          1.92665        3.01763        0.11859
H          2.57011        2.89842        0.99388
C          0.31382        3.37052       -2.12173
H         -0.32701        3.52675       -2.99113
C          0.99713        4.05490        0.09857
H          0.88686        4.74091        0.94032
C          0.19245        4.21004       -1.02309
F         -0.73128        5.17567       -1.03549
H         -1.27838        1.45286       -1.48701
H         -1.55200        0.42782       -2.87247
C         -3.37028        1.06678       -1.89145
H         -3.79969        1.09054       -0.87956
H         -3.95679        0.32752       -2.46213
C         -3.51906        2.43708       -2.53678
H         -2.98251        3.20369       -1.95555
H         -3.10945        2.44569       -3.56015
H         -4.57461        2.74262       -2.59586
H         -3.06167       -1.97269       -2.12756
H         -2.16754       -3.06395       -1.07870
C         -3.86055       -2.17557       -0.13019
C         -3.72219       -2.88198        1.07380
H         -2.78072       -3.39546        1.28865
C         -5.09459       -1.56672       -0.39057
H         -5.24162       -1.02533       -1.32626
C         -4.75987       -2.95840        1.99956
H         -4.65378       -3.50857        2.93619
C         -6.14615       -1.63603        0.51888
H         -7.10840       -1.16259        0.31603
C         -5.96355       -2.32676        1.71046
F         -6.96420       -2.39565        2.58681
H         -1.77206       -1.16615        1.51100
H         -0.47453       -0.01948        1.18982
C         -2.40383        0.88382        1.25225
C         -1.95640        2.18893        1.00787
H         -0.94099        2.34902        0.63922
C         -3.69325        0.71277        1.76859
H         -4.05842       -0.29125        1.98986
C         -2.77929        3.29180        1.21360
H         -2.43652        4.30500        0.99574
C         -4.52793        1.80505        1.99188
H         -5.53674        1.67819        2.38894
C         -4.06524        3.08204        1.69735
F         -4.86749        4.12791        1.89554
