96
Cat631.ts34.5.log	Energy: -1637844.4687242
C         -0.84934       -4.15670       -0.80597
H         -0.58836       -4.93558       -0.08480
H         -1.91323       -4.12514       -1.06369
C          0.10422       -3.83719       -1.82235
H          1.08820       -4.31655       -1.80807
H         -0.26199       -3.66545       -2.84107
H          0.16911       -2.22265       -1.82466
Rh         0.04551       -2.31561       -0.19868
C         -1.88978        0.44849       -1.44614
C         -3.48783       -1.81247       -0.34191
C         -1.98900       -0.02441        1.50420
C          1.87542        0.21622        1.39534
C          3.44522       -1.80683       -0.16747
C          1.92012        0.32458       -1.58753
P          1.82862       -0.85777       -0.13794
P         -1.85135       -0.91293       -0.14755
C          0.40377       -2.87459        1.56143
O          0.64823       -3.13885        2.66018
H         -1.27130        0.03376       -2.25510
H         -1.32268        1.28225       -1.00549
C         -3.18586        0.93566       -2.01516
C         -3.83299        2.07292       -1.51710
H         -3.38495        2.63172       -0.69521
C         -3.77163        0.25865       -3.09515
H         -3.26319       -0.61085       -3.52232
C         -5.04297        2.49890       -2.05901
H         -5.53080        3.38601       -1.64786
C         -4.98294        0.68222       -3.63854
H         -5.42185        0.13698       -4.47761
C         -5.62887        1.80243       -3.11576
H         -6.57898        2.13711       -3.53869
H         -3.23715       -2.84176       -0.04848
H         -3.68716       -1.83189       -1.42400
C         -4.69637       -1.36194        0.41895
C         -5.65486       -0.50914       -0.14252
H         -5.53209       -0.16047       -1.16795
C         -4.90109       -1.81554        1.73096
H         -4.18323       -2.51133        2.17552
C         -6.76425       -0.10004        0.59334
H         -7.49466        0.56942        0.13248
C         -6.00822       -1.40425        2.47073
H         -6.14363       -1.76826        3.49206
C         -6.94313       -0.53701        1.90568
H         -7.81252       -0.21293        2.48254
H         -0.96045       -0.04255        1.88719
H         -2.57052       -0.70241        2.14614
C         -2.52390        1.37231        1.57430
C         -3.86772        1.64176        1.86112
H         -4.55487        0.81662        2.04852
C         -1.66145        2.45964        1.37027
H         -0.59900        2.27401        1.19210
C         -4.33751        2.95204        1.90980
H         -5.39183        3.13411        2.13167
C         -2.12893        3.77163        1.41289
H         -1.43550        4.60032        1.24928
C         -3.47528        4.02325        1.67616
H         -3.84696        5.04996        1.71198
H          1.23242       -0.32177        2.10566
H          1.34697        1.14049        1.11923
C          3.18298        0.53190        2.05263
C          3.86387        1.72883        1.80272
H          3.43764        2.45876        1.11330
C          3.73904       -0.37737        2.96411
H          3.20066       -1.30140        3.19598
C          5.08115        1.99639        2.42449
H          5.59771        2.93533        2.21117
C          4.95796       -0.11162        3.58512
H          5.37565       -0.83370        4.29077
C          5.63788        1.07544        3.31162
H          6.59350        1.28594        3.79757
H          3.15840       -2.74168       -0.66914
H          3.64037       -2.06779        0.88371
C          4.65840       -1.22336       -0.82371
C          5.62655       -0.51547       -0.10122
H          5.51033       -0.38791        0.97517
C          4.85446       -1.39672       -2.20192
H          4.12825       -1.97828       -2.77762
C          6.73713        0.02854       -0.74175
H          7.47547        0.58117       -0.15575
C          5.96381       -0.85166       -2.84572
H          6.09385       -0.99747       -3.92078
C          6.90782       -0.12834       -2.11704
H          7.77875        0.30069       -2.61809
H          0.87882        0.39252       -1.92772
H          2.47273       -0.21826       -2.36895
C          2.47792        1.70084       -1.38725
C          3.82323        2.00094       -1.63219
H          4.49408        1.22008       -1.99045
C          1.63676        2.73663       -0.95500
H          0.57317        2.53611       -0.80068
C          4.31607        3.28661       -1.42180
H          5.37124        3.49313       -1.61614
C          2.12790        4.02242       -0.73817
H          1.45152        4.81110       -0.39960
C          3.47553        4.30113       -0.96447
H          3.86527        5.30782       -0.79655
