64
Cat63.ts34.5.log	Energy: -1154511.5020536
C          1.34042       -3.38319       -0.07817
H          0.86394       -4.18202       -0.65251
H          2.35188       -3.12989       -0.41186
C          1.02857       -3.27641        1.31121
H          0.27100       -3.93551        1.74394
H          1.83632       -3.04091        2.01254
H          0.74034       -1.65238        1.53386
Rh        -0.00247       -1.71793        0.09566
C          2.63878        0.64705        0.30129
O          2.46324       -0.58640       -2.00215
O          0.57319        1.09564       -1.49541
C         -2.51684        0.68736       -0.19887
O         -2.57364       -0.66171        2.06099
O         -0.58473        0.94196        1.77619
P         -1.43022       -0.21733        0.95597
P          1.40971       -0.15474       -0.79665
C         -1.25850       -2.43151       -1.14389
O         -2.02203       -2.82438       -1.91237
H          2.02876        1.27607        0.97301
H          2.98848       -0.18972        0.93146
C          3.83639        1.38900       -0.27654
H          4.31821        0.75414       -1.03759
H          3.51086        2.29980       -0.80323
C          4.85162        1.77449        0.79151
H          5.19438        0.86270        1.31421
H          4.35746        2.39155        1.56441
C          6.05752        2.52330        0.24143
H          6.54075        1.90531       -0.53592
H          5.71103        3.43505       -0.27719
C          7.07588        2.89681        1.30644
H          7.93392        3.43707        0.87839
H          7.46741        2.00148        1.81581
H          6.62778        3.54281        2.07870
C          1.99771       -1.39552       -3.05895
H          1.32119       -2.18321       -2.68661
H          1.45697       -0.79607       -3.81096
H          2.87229       -1.85900       -3.53691
C          1.18141        2.16027       -2.18707
H          1.48058        2.96802       -1.49760
H          2.06687        1.82637       -2.75176
H          0.44356        2.56554       -2.89537
H         -1.83357        1.36542       -0.73805
H         -2.80614       -0.07836       -0.93843
C         -3.76291        1.39037        0.32297
H         -4.34365        0.68438        0.93788
H         -3.49102        2.22111        0.99321
C         -4.63241        1.93006       -0.80498
H         -4.91840        1.09811       -1.47400
H         -4.03810        2.62224       -1.42938
C         -5.88747        2.63984       -0.31678
H         -6.47198        1.94525        0.31214
H         -5.59679        3.47123        0.35010
C         -6.75996        3.16914       -1.44346
H         -7.65792        3.67667       -1.05952
H         -7.09569        2.35404       -2.10461
H         -6.21079        3.89198       -2.06830
C         -2.27175       -1.65506        3.01496
H         -1.73096       -2.49414        2.54537
H         -1.65394       -1.24896        3.83393
H         -3.22255       -2.01598        3.43101
C         -1.20029        2.01127        2.45402
H         -1.44515        2.83645        1.76388
H         -2.11930        1.69067        2.97086
H         -0.48647        2.38597        3.20197
