86
Cat642.ts34.5.log	Energy: -1304836.9275326
C         -1.21125       -3.05001        0.18774
H         -0.67052       -3.77227        0.80457
H         -2.27338       -2.94830        0.43424
C         -0.79919       -2.86580       -1.16004
H          0.06471       -3.41990       -1.53757
H         -1.57168       -2.71186       -1.92397
H         -0.49762       -1.32584       -1.38395
Rh        -0.04436       -1.22621        0.18905
C         -2.96997        0.23490       -1.08431
C         -3.15185       -0.36307        1.78632
C         -1.67768        2.00876        0.87485
C          2.58666        1.07017        0.32580
C          3.41241       -1.67707       -0.30256
C          2.16082       -0.00416       -2.38270
P          1.99751       -0.46206       -0.58081
P         -1.91898        0.20011        0.47131
C          0.71713       -1.39874        1.88304
O          1.23955       -1.43208        2.91545
H         -2.36893        0.81606       -1.80070
H         -2.94024       -0.80097       -1.44830
C         -4.37549        0.74597       -1.01579
C         -4.61477        2.12692       -0.99528
H         -3.76835        2.81160       -1.08467
C         -5.47604       -0.13622       -0.94766
C         -5.30844       -1.62578       -1.06651
H         -4.65848       -2.04604       -0.28363
H         -4.85801       -1.90361       -2.03347
H         -6.27971       -2.13411       -0.99619
C         -5.89851        2.64454       -0.85523
H         -6.05266        3.72595       -0.83489
C         -6.76026        0.40061       -0.80150
H         -7.61161       -0.28310       -0.74034
C         -6.97977        1.77422       -0.74219
H         -7.99425        2.16190       -0.62406
H         -3.73431       -1.12470        1.24089
C         -2.46749       -1.06972        2.95229
H         -3.22620       -1.46017        3.64985
H         -1.84575       -1.90658        2.61036
H         -1.81663       -0.38902        3.52178
C         -4.13132        0.69219        2.29353
H         -4.66695        1.20691        1.48599
H         -4.88603        0.21325        2.93837
H         -3.62245        1.45108        2.90781
H         -2.67425        2.45301        1.03253
C         -0.86699        2.12630        2.16158
H         -0.66410        3.18433        2.39340
H         -1.38584        1.68970        3.02623
H          0.09731        1.60489        2.05627
C         -0.97980        2.74241       -0.26004
H         -1.57513        2.77447       -1.18417
H         -0.76480        3.78319        0.03096
H         -0.02758        2.25101       -0.50202
H          1.90932        1.86721       -0.01401
H          2.31020        0.87514        1.37015
C          4.01604        1.49963        0.20788
C          4.44506        2.18399       -0.93730
H          3.71190        2.44145       -1.70563
C          4.95204        1.21730        1.22672
C          4.54294        0.58463        2.52759
H          4.04320       -0.38692        2.39867
H          3.83429        1.22531        3.07748
H          5.41597        0.42587        3.17506
C          5.77848        2.53738       -1.11989
H          6.08616        3.06345       -2.02664
C          6.28962        1.57635        1.02509
H          7.01764        1.35062        1.80925
C          6.71163        2.21704       -0.13713
H          7.76420        2.48000       -0.26539
H          3.64928       -1.48896        0.75889
C          2.95201       -3.12822       -0.40292
H          3.74907       -3.80031       -0.04632
H          2.04720       -3.29970        0.19693
H          2.72477       -3.41398       -1.44188
C          4.67979       -1.44890       -1.12218
H          5.05809       -0.42125       -1.05763
H          5.47730       -2.11751       -0.75945
H          4.52085       -1.69017       -2.18451
H          3.21165        0.30053       -2.52242
C          1.87578       -1.20335       -3.28022
H          2.01004       -0.92257       -4.33717
H          2.53893       -2.05452       -3.07593
H          0.83774       -1.54692       -3.15447
C          1.25200        1.15674       -2.76095
H          1.47638        2.07646       -2.20179
H          1.36146        1.38862       -3.83260
H          0.19828        0.89873       -2.57261
