102
Cat644.ts34.5.log	Energy: -1592184.6338908
C         -1.10603       -3.05187       -2.58407
H         -0.86046       -4.06786       -2.26359
H         -2.16159       -2.90254       -2.83267
C         -0.12204       -2.32326       -3.32140
H          0.87098       -2.75702       -3.46759
H         -0.44980       -1.71900       -4.17433
H         -0.14060       -0.83466       -2.61510
Rh        -0.25516       -1.63642       -1.21040
C         -2.84588        0.72236       -1.77521
O         -3.53541       -1.36055       -0.23364
O         -1.92072        0.36616        0.79428
C          1.28165        0.14972        1.40649
O          2.72931       -0.09804       -0.82937
O          0.65794        1.42405       -0.98628
P          1.13311       -0.05023       -0.42932
P         -2.15276       -0.51437       -0.58303
C          0.21849       -2.96391        0.06388
O          0.45474       -3.74836        0.87693
H         -1.93058        1.13111       -2.22906
H         -3.34973        0.11942       -2.54710
C         -3.69284        1.83594       -1.24444
C         -3.05495        3.01050       -0.82787
H         -1.97059        3.08312       -0.94196
C         -5.09260        1.72487       -1.11097
C         -5.82312        0.49889       -1.57453
H         -5.42387       -0.40361       -1.08964
H         -5.71230        0.35827       -2.66304
H         -6.89747        0.57365       -1.35711
C         -3.76693        4.05912       -0.25368
H         -3.24547        4.96280        0.07089
C         -5.79325        2.78879       -0.53281
H         -6.87812        2.70526       -0.42289
C         -5.14597        3.94338       -0.09649
H         -5.72180        4.75443        0.35565
C         -3.44091       -2.71179        0.19847
H         -4.44323       -3.14433        0.05179
H         -2.73588       -3.25338       -0.45559
C         -2.99760       -2.85223        1.64080
H         -2.03821       -2.32117        1.76601
H         -3.72529       -2.35259        2.30352
C         -2.82699       -4.30591        2.05771
H         -2.14213       -4.80413        1.35042
H         -3.79474       -4.83093        1.96813
C         -2.28344       -4.45660        3.46882
H         -1.28670       -3.99540        3.55258
H         -2.94043       -3.97039        4.20800
H         -2.18477       -5.51468        3.75439
C         -2.93032        0.75226        1.72307
H         -3.62985        1.46519        1.25947
H         -3.50830       -0.13415        2.02323
C         -2.24360        1.37351        2.91895
H         -2.99836        1.53702        3.70763
H         -1.52353        0.64117        3.32543
C         -1.53228        2.68141        2.60088
H         -2.28286        3.43795        2.31590
H         -0.91526        2.53201        1.69970
C         -0.67247        3.19514        3.74321
H         -1.27199        3.37075        4.65101
H          0.11557        2.47116        4.00795
H         -0.17790        4.14463        3.48581
H          0.51180        0.88583        1.67719
H          0.91102       -0.81121        1.79216
C          2.62130        0.48642        1.99137
C          2.91361        1.79477        2.38907
H          2.14722        2.56688        2.28558
C          3.59738       -0.51735        2.16812
C          3.31687       -1.94535        1.80704
H          3.03170       -2.04512        0.74957
H          2.48628       -2.36112        2.40002
H          4.19845       -2.57733        1.98007
C          4.15456        2.13568        2.92164
H          4.35555        3.16689        3.22107
C          4.83866       -0.15966        2.70334
H          5.59691       -0.93659        2.83497
C          5.12771        1.15266        3.07140
H          6.10827        1.40187        3.48380
C          3.15991       -0.77304       -2.00283
H          2.95131       -1.85282       -1.89318
H          2.58677       -0.41996       -2.87763
C          4.63662       -0.51527       -2.19860
H          4.94705       -1.02726       -3.12658
H          4.78785        0.56297       -2.37590
C          5.50337       -0.96610       -1.03209
H          5.35696       -2.04887       -0.86904
H          5.14546       -0.47002       -0.11634
C          6.97900       -0.66757       -1.23604
H          7.37709       -1.17378       -2.13066
H          7.15032        0.41333       -1.36690
H          7.57988       -0.99406       -0.37366
C          1.09774        2.68841       -0.51906
H          0.41032        3.41499       -0.98257
H          0.94229        2.75742        0.57015
C          2.53022        3.03532       -0.87208
H          2.73119        4.03715       -0.45141
H          3.21558        2.34188       -0.35938
C          2.81533        3.03654       -2.36584
H          2.10002        3.70620       -2.87593
H          2.61650        2.02923       -2.76588
C          4.23775        3.45803       -2.69556
H          4.43811        4.48843       -2.36025
H          4.97249        2.80633       -2.19593
H          4.43536        3.41551       -3.77740
