100
Cat695.ts34.5.log	Energy: -1545302.4586038
C          0.98621       -4.36635        0.23302
H          0.81237       -5.08319       -0.57372
H          2.02018       -4.33941        0.59111
C         -0.06733       -4.15074        1.17583
H         -1.03231       -4.64522        1.02608
H          0.19713       -4.06186        2.23602
H         -0.17693       -2.54856        1.30875
Rh         0.10797       -2.49205       -0.29996
C          1.95466        0.25540        1.20605
C          3.56666       -1.99698        0.38013
C          2.47372       -0.17269       -1.63234
C         -1.68896        0.07372       -1.84667
C         -3.31531       -1.96571       -0.43344
C         -1.79565        0.10629        1.09651
P         -1.67924       -1.04104       -0.37815
P          1.98060       -1.09258       -0.05856
C         -0.02626       -2.90058       -2.13111
O         -0.09397       -3.08252       -3.27018
H          2.90296        0.81511        1.19514
H          1.19019        0.97037        0.85907
C          1.62542       -0.22471        2.61170
H          2.43362       -0.87886        2.98251
H          0.72933       -0.86815        2.57852
C          1.41242        0.92569        3.58363
H          2.30697        1.56586        3.64763
H          0.57531        1.56587        3.26102
H          1.18499        0.56338        4.59781
H          3.36937       -2.45292        1.36337
H          3.62529       -2.82504       -0.34226
C          4.82723       -1.19651        0.38918
C          5.67054       -1.17439       -0.72998
H          5.43994       -1.80621       -1.59200
C          5.17852       -0.40913        1.49541
H          4.55248       -0.44231        2.39111
C          6.80357       -0.36380       -0.74770
H          7.45191       -0.35738       -1.62719
C          6.30384        0.41861        1.49183
C          6.61869        1.29324        2.67053
H          6.28754        2.32906        2.48651
H          6.11177        0.94246        3.58062
H          7.69982        1.32892        2.87085
C          7.11428        0.43596        0.34881
H          8.00360        1.07185        0.32609
H          3.42921       -0.60788       -1.96099
H          1.71717       -0.45001       -2.37821
C          2.59296        1.31858       -1.53605
C          1.56101        2.14814       -1.98779
H          0.68973        1.70701       -2.47650
C          3.72438        1.91951       -0.96749
H          4.55026        1.28828       -0.63260
C          1.64769        3.53245       -1.84291
H          0.83439        4.16607       -2.20679
C          3.82663        3.30312       -0.80989
C          5.03748        3.90741       -0.15864
H          5.87876        3.19982       -0.15089
H          5.35957        4.82496       -0.67365
H          4.82426        4.18207        0.88833
C          2.76695        4.10791       -1.24967
H          2.82867        5.19398       -1.13728
H         -0.89516        0.80105       -1.61491
H         -1.29399       -0.53753       -2.67453
C         -2.95068        0.80338       -2.28706
H         -3.44953        1.26842       -1.42428
H         -3.66262        0.07289       -2.70535
C         -2.64595        1.86767       -3.33050
H         -1.98958        2.64609       -2.90981
H         -2.13838        1.43840       -4.20963
H         -3.56390        2.36344       -3.68132
H         -3.50528       -2.14044       -1.50413
H         -3.06235       -2.94481       -0.00381
C         -4.51727       -1.40157        0.26055
C         -4.70759       -1.64492        1.62962
H         -3.98881       -2.26649        2.17102
C         -5.47537       -0.63914       -0.41229
H         -5.35393       -0.45697       -1.48221
C         -5.80718       -1.11465        2.29689
H         -5.94309       -1.31100        3.36315
C         -6.58774       -0.09649        0.24036
C         -7.58187        0.72784       -0.52488
H         -7.08929        1.57735       -1.02360
H         -8.07254        0.13130       -1.31039
H         -8.36600        1.12921        0.13211
C         -6.74017       -0.33893        1.60908
H         -7.60232        0.07545        2.13864
H         -2.38211       -0.42997        1.85689
H         -0.76407        0.14539        1.46587
C         -2.31553        1.49622        0.88625
C         -1.47204        2.49087        0.37616
H         -0.42271        2.26899        0.16462
C         -3.64357        1.83198        1.17726
H         -4.30543        1.07025        1.59459
C         -1.96227        3.77020        0.12389
H         -1.29241        4.53318       -0.28080
C         -4.14930        3.11210        0.93609
C         -5.57520        3.45044        1.26412
H         -6.12594        2.56342        1.60554
H         -5.62991        4.21149        2.05928
H         -6.10049        3.86278        0.38817
C         -3.29313        4.07778        0.39034
H         -3.67192        5.08364        0.18780
