92
Cat687.ts34.5.log	Energy: -1635447.3898443
C         -0.38627       -3.51883        1.02717
H         -0.44827       -4.26881        0.23426
H          0.48690       -3.61692        1.67941
C         -1.60014       -3.00796        1.56390
H         -2.56061       -3.29429        1.12723
H         -1.65843       -2.81570        2.64067
H         -1.39440       -1.37152        1.57458
Rh        -0.64955       -1.56322        0.14974
C          1.06323        0.47621        2.49422
O          2.71408       -1.07829        1.22314
O          1.57741        0.75643       -0.21663
C         -1.51550        1.01381       -2.09640
O         -3.48622        0.05785       -0.62070
O         -1.73016        1.46843        0.62835
P         -1.82841        0.22890       -0.48327
P          1.20152       -0.44039        0.90770
C         -0.39963       -2.19417       -1.62638
O         -0.23934       -2.54181       -2.71251
H          0.51156        1.39446        2.22530
H          0.34736       -0.11682        3.08778
C          2.31487        0.76658        3.31297
H          3.09624        1.20728        2.67711
H          2.73447       -0.18799        3.66564
C          2.02445        1.68300        4.49115
H          1.65254        2.66425        4.15344
H          1.25624        1.25468        5.15503
H          2.92734        1.85841        5.09579
C          3.47868       -1.84264        0.38033
C          2.93996       -2.86749       -0.39445
H          1.86960       -3.06399       -0.34275
C          4.85445       -1.55603        0.36202
C          5.41392       -0.46936        1.22630
H          4.98279        0.50887        0.96395
H          5.17838       -0.64580        2.28700
H          6.50484       -0.40471        1.11663
C          3.76960       -3.60711       -1.23507
H          3.34036       -4.40184       -1.84944
C          5.66127       -2.31727       -0.48743
H          6.73333       -2.10393       -0.51816
C          5.13289       -3.32970       -1.28870
H          5.78860       -3.90415       -1.94680
C          2.74654        1.44620       -0.39653
C          3.06691        2.52123        0.43678
H          2.38647        2.78834        1.24637
C          3.55781        1.10987       -1.49302
C          3.18660        0.00639       -2.43651
H          3.83002       -0.87489       -2.28772
H          2.14779       -0.31406       -2.28901
H          3.31052        0.33352       -3.47970
C          4.23522        3.24702        0.22378
H          4.48348        4.08170        0.88327
C          4.72721        1.85645       -1.68115
H          5.37633        1.60283       -2.52391
C          5.07610        2.90492       -0.83420
H          5.99746        3.46493       -1.00881
H         -0.51664        1.47310       -2.01024
H         -1.38517        0.15546       -2.77741
C         -2.54627        1.98376       -2.66127
H         -2.69366        2.82573       -1.96852
H         -3.51722        1.46969       -2.73163
C         -2.12713        2.51566       -4.02281
H         -1.17664        3.06869       -3.95715
H         -1.98656        1.69891       -4.74911
H         -2.88389        3.20153       -4.43252
C         -4.15135       -0.91797        0.07809
C         -4.35492       -0.78619        1.44964
H         -3.96054        0.09389        1.95931
C         -4.61522       -2.03559       -0.63022
C         -4.34245       -2.16051       -2.09689
H         -4.66463       -1.25957       -2.64061
H         -3.26254       -2.27829       -2.28205
H         -4.85846       -3.03133       -2.52324
C         -5.04192       -1.77915        2.14478
H         -5.20075       -1.67769        3.22080
C         -5.30633       -3.01466        0.08988
H         -5.67842       -3.89385       -0.44319
C         -5.52016       -2.89588        1.46310
H         -6.06060       -3.67883        1.99971
C         -1.69699        2.81902        0.38387
C         -0.50401        3.40016       -0.04203
H          0.36138        2.75644       -0.20060
C         -2.84449        3.59098        0.62391
C         -4.11216        2.94962        1.09573
H         -4.43687        2.15651        0.40598
H         -3.97049        2.47721        2.08096
H         -4.91817        3.69008        1.18571
C         -0.44068        4.77327       -0.26614
H          0.49556        5.22124       -0.60708
C         -2.75029        4.96765        0.39683
H         -3.63390        5.58726        0.57300
C         -1.56931        5.56009       -0.04944
H         -1.53241        6.63797       -0.22212
