104
Cat603.ts34.5.log	Energy: -2358167.9412781
C         -0.18739       -3.60970       -2.28555
H         -0.18528       -3.64849       -3.37772
H          0.72812       -3.99390       -1.82651
C         -1.42461       -3.79495       -1.60166
H         -2.35085       -3.88829       -2.17493
H         -1.43382       -4.38345       -0.67800
H         -1.46065       -2.54756       -0.45991
Rh        -0.81878       -1.65694       -1.64260
O          0.84430        0.28216        0.38050
C          1.22545       -2.35907        1.18603
C          2.81838       -1.25268       -0.87868
O         -2.02106        1.49964       -1.63502
C         -3.96722       -0.27995       -1.44515
C         -2.31036        0.52971        0.83262
P         -2.22089       -0.02270       -0.92859
P          1.04951       -1.23591       -0.31906
C         -0.88109       -1.01879       -3.42755
O         -0.94993       -0.64229       -4.51503
C          1.53684        0.90473        1.36797
C          1.03751        0.89173        2.67376
H          0.12321        0.33767        2.89870
C          2.68172        1.64096        1.06704
H          3.01733        1.69297        0.03150
C          1.70534        1.58153        3.68238
H          1.32787        1.57344        4.70604
C          3.35306        2.33053        2.07019
H          4.24231        2.91741        1.83629
C          2.86770        2.28899        3.37744
Cl         3.70629        3.14106        4.63203
H          0.62789       -1.85687        1.96267
H          0.66302       -3.26261        0.91132
C          2.59469       -2.70083        1.69635
C          3.26087       -1.82660        2.56553
H          2.75225       -0.92246        2.90315
C          3.25416       -3.87685        1.27707
C          2.59428       -4.87078        0.36508
H          2.38585       -4.44471       -0.63006
H          1.63075       -5.22400        0.76589
H          3.23443       -5.75027        0.21429
C          4.55885       -2.07806        2.99958
H          5.05077       -1.37284        3.67346
C          4.55802       -4.11595        1.72542
H          5.06685       -5.02715        1.39883
C          5.21655       -3.22806        2.57170
H          6.23637       -3.44009        2.90111
H          3.44621       -1.07417        0.00365
H          2.97403       -2.31715       -1.13236
C          3.23428       -0.38277       -2.03022
C          2.49766       -0.39362       -3.21928
H          1.61436       -1.03070       -3.27510
C          4.41050        0.39546       -1.95586
C          5.34646        0.32262       -0.78069
H          5.80543       -0.67698       -0.70689
H          4.85197        0.50873        0.18365
H          6.15918        1.05436       -0.88585
C          2.86297        0.38883       -4.30990
H          2.26266        0.36207       -5.22241
C          4.75155        1.19454       -3.05493
H          5.65235        1.81131       -2.99556
C          3.98887        1.20470       -4.22020
H          4.28515        1.83641       -5.06101
C         -0.87489        2.23326       -1.47662
C          0.19809        2.06309       -2.35027
H          0.12521        1.34166       -3.16136
C         -0.79475        3.18214       -0.45420
H         -1.64889        3.33329        0.20722
C          1.36307        2.80341       -2.17894
H          2.21435        2.65003       -2.84370
C          0.36674        3.92822       -0.27852
H          0.44438        4.65784        0.52879
C          1.44398        3.72378       -1.13779
Cl         2.92181        4.60299       -0.88951
H         -3.92239       -0.13830       -2.53816
H         -4.13736       -1.35248       -1.28581
C         -5.04201        0.56375       -0.82535
C         -5.08832        1.93733       -1.09990
H         -4.32108        2.36681       -1.74764
C         -6.02214       -0.00923        0.01297
C         -6.02693       -1.47491        0.34037
H         -5.09098       -1.78727        0.82896
H         -6.15099       -2.09280       -0.56399
H         -6.85163       -1.71759        1.02372
C         -6.08472        2.74781       -0.56224
H         -6.10221        3.81580       -0.79181
C         -7.01928        0.82159        0.53769
H         -7.78288        0.38040        1.18404
C         -7.05918        2.18523        0.25913
H         -7.85073        2.80672        0.68451
H         -1.26545        0.76772        1.08339
H         -2.85741        1.47821        0.77933
C         -2.93646       -0.36692        1.86245
C         -2.53378       -1.70002        2.00398
H         -1.75341       -2.08319        1.34502
C         -3.92106        0.14622        2.73674
C         -4.33189        1.58952        2.70344
H         -4.71976        1.88811        1.71849
H         -3.48185        2.25102        2.93837
H         -5.12140        1.78665        3.44090
C         -3.11526       -2.54330        2.94807
H         -2.78466       -3.58156        3.02839
C         -4.49831       -0.71631        3.67487
H         -5.26730       -0.32187        4.34461
C         -4.11491       -2.05133        3.78136
H         -4.58807       -2.69894        4.52324
