84
Cat621.ts34.5.log	Energy: -2692534.1361088
C         -0.53749       -3.63809       -1.42309
H         -0.29480       -4.55963       -0.88744
H         -1.56732       -3.58612       -1.79084
C          0.48558       -3.01797       -2.19872
H          1.50309       -3.41927       -2.18746
H          0.21218       -2.59567       -3.17297
H          0.40918       -1.44968       -1.78436
Rh         0.16150       -1.96344       -0.26715
C         -2.05517        0.17489       -1.87120
C         -3.38893       -1.38054        0.24930
C         -1.75600        0.74230        1.03927
C          2.28535       -0.06043        1.91662
C          3.46638       -0.90191       -0.55344
C          1.50336        1.18102       -0.62863
P          1.83313       -0.44902        0.14535
P         -1.77480       -0.61670       -0.19892
C          0.35218       -2.92276        1.34779
O          0.48186       -3.45742        2.36194
H         -1.97774       -0.70013       -2.53754
H         -1.13257        0.75563       -2.03109
C         -3.26465        0.98381       -2.23039
C         -3.15737        2.36344       -2.45787
H         -2.18085        2.84943       -2.37844
C         -4.51759        0.37942       -2.39886
H         -4.61717       -0.69955       -2.26176
C         -4.27413        3.12259       -2.80074
H         -4.16372        4.19580       -2.97412
C         -5.63559        1.13700       -2.74022
H         -6.60405        0.64544       -2.86087
C         -5.52092        2.51311       -2.93334
H         -6.39828        3.10630       -3.20146
C         -3.48376       -2.77356        0.32474
H         -2.59123       -3.37306        0.13405
C         -4.52028       -0.61158        0.55756
H         -4.46626        0.47853        0.53830
C         -4.68368       -3.39493        0.66341
H         -4.75528       -4.48201        0.72398
C         -5.72434       -1.21699        0.89873
H         -6.60501       -0.61796        1.13571
C         -5.80040       -2.60976        0.94146
Cl        -7.29786       -3.36898        1.36347
C         -2.22408        2.04278        0.82623
H         -2.65901        2.32315       -0.13251
C         -1.22632        0.42261        2.29761
H         -0.85940       -0.59167        2.47776
C         -2.13583        3.01019        1.82567
H         -2.49329        4.02631        1.64966
C         -1.14044        1.37372        3.30853
H         -0.72477        1.11940        4.28508
C         -1.58454        2.67398        3.05983
Cl        -1.45240        3.87591        4.29824
H          2.22696       -1.03478        2.42405
H          1.46611        0.55146        2.32135
C          3.62835        0.56765        2.11976
C          3.81081        1.95514        2.06851
H          2.94847        2.61178        1.93831
C          4.75506       -0.24488        2.30373
H          4.63045       -1.33020        2.34302
C          5.08416        2.51123        2.17743
H          5.20498        3.59640        2.13462
C          6.02738        0.30774        2.41375
H          6.89193       -0.34628        2.54917
C          6.19786        1.68986        2.34416
H          7.19590        2.12641        2.42713
C          3.79329       -2.25917       -0.63007
H          3.03265       -2.99733       -0.35660
C          4.43127        0.05052       -0.90536
H          4.20334        1.11603       -0.83192
C          5.06011       -2.66712       -1.03948
H          5.32010       -3.72539       -1.09499
C          5.69575       -0.34277       -1.32835
H          6.45113        0.39714       -1.59685
C          6.00399       -1.70210       -1.38742
Cl         7.58189       -2.19622       -1.89999
C          0.95855        2.25676        0.07713
H          0.82127        2.20324        1.15818
C          1.61507        1.28874       -2.02412
H          2.02633        0.45587       -2.60077
C          0.53050        3.40773       -0.58203
H          0.09100        4.23443       -0.02248
C          1.19022        2.42820       -2.69609
H          1.26909        2.50135       -3.78186
C          0.63819        3.48272       -1.96636
Cl         0.04473        4.88215       -2.79800
