88
Cat681.ts34.5.log	Energy: -1446686.5080028
C         -0.31784       -3.25493       -0.66061
H          0.35500       -3.92063       -0.11332
H         -1.37101       -3.54785       -0.63809
C          0.18125       -2.52070       -1.75967
H          1.22978       -2.64221       -2.05015
H         -0.48714       -2.32143       -2.60446
H          0.25523       -0.93962       -1.51155
Rh        -0.03273       -1.20997        0.08163
C         -2.64852       -0.28378       -2.14088
C         -3.59634       -0.73820        0.51183
C         -2.11218        1.66311        0.02878
C          2.49607        0.02178        2.16347
C          3.50089       -1.17598       -0.19674
C          2.18610        1.42586       -0.48363
P          2.03144       -0.18597        0.38100
P         -2.08013       -0.13359       -0.37190
C         -0.19912       -1.54415        1.90310
O         -0.27522       -1.69732        3.04475
H         -3.30924        0.55261       -2.41354
H         -1.74722       -0.19383       -2.76397
C         -3.33164       -1.61659       -2.42716
H         -4.28914       -1.66815       -1.88529
H         -2.72431       -2.44152       -2.01894
C         -3.56584       -1.83662       -3.91360
H         -4.18805       -1.03467       -4.34268
H         -2.61634       -1.84929       -4.47321
H         -4.07690       -2.79273       -4.10298
C         -3.42604       -1.85596        1.33589
H         -2.43064       -2.29643        1.40808
C         -4.89147       -0.18037        0.37217
C         -5.22564        0.95478       -0.55442
H         -5.41141        0.57763       -1.57412
H         -4.42665        1.70347       -0.61723
H         -6.14400        1.46172       -0.22680
C         -4.48476       -2.41751        2.04563
H         -4.31333       -3.28713        2.68394
C         -5.93930       -0.75148        1.10472
H         -6.93820       -0.31592        1.01117
C         -5.75011       -1.85335        1.93508
H         -6.59486       -2.26919        2.48984
C         -2.59017        2.03667        1.29598
H         -2.97096        1.26686        1.97161
C         -1.57939        2.65339       -0.82431
C         -0.94417        2.32876       -2.14325
H         -1.69033        2.13204       -2.92742
H         -0.30030        1.43942       -2.05554
H         -0.31409        3.16090       -2.48202
C         -2.60967        3.36624        1.69984
H         -2.99747        3.62870        2.68699
C         -1.62440        3.98885       -0.40231
H         -1.22287        4.75647       -1.06973
C         -2.14141        4.35520        0.83594
H         -2.16323        5.40680        1.13194
H          1.63315        0.47643        2.66994
H          2.52512       -1.02194        2.51950
C          3.78710        0.72872        2.54168
H          3.81605        1.73475        2.09073
H          4.64250        0.17861        2.11958
C          3.94842        0.84200        4.05073
H          3.12611        1.42321        4.49837
H          3.94416       -0.15126        4.52706
H          4.89359        1.33820        4.31876
C          3.24717       -2.55747       -0.20884
H          2.24123       -2.88501        0.06765
C          4.80621       -0.72293       -0.50473
C          5.26940        0.70914       -0.48924
H          4.60598        1.37704        0.06527
H          5.33860        1.11027       -1.51269
H          6.27466        0.77005       -0.04569
C          4.22258       -3.49057       -0.53958
H          3.98534       -4.55692       -0.53320
C          5.77006       -1.68254       -0.85363
H          6.77831       -1.33570       -1.09858
C          5.49630       -3.04459       -0.88032
H          6.28053       -3.75443       -1.15472
C          2.61927        1.39111       -1.81900
H          2.89813        0.43110       -2.26283
C          1.75288        2.65080        0.06650
C          1.10430        2.74947        1.41490
H          1.83001        2.67040        2.23832
H          0.35644        1.95046        1.54068
H          0.58281        3.70921        1.52050
C          2.72307        2.54878       -2.57911
H          3.07603        2.49394       -3.61171
C          1.88837        3.80994       -0.71050
H          1.56951        4.76231       -0.27813
C          2.38191        3.77558       -2.01015
H          2.47409        4.69935       -2.58633
