100
Cat690.ts34.5.log	Energy: -1545304.3858297
C          1.15214        2.92200       -2.17430
H          0.90742        3.95265       -1.90593
H          2.20063        2.75866       -2.44012
C          0.14994        2.13031       -2.79398
H         -0.84220        2.55811       -2.96475
H          0.45634        1.42989       -3.57931
H         -0.07649        0.80450       -1.93645
Rh         0.37431        1.65129       -0.60890
C          2.35574       -1.35903       -1.33147
C          3.79295        1.07621       -0.74292
C          2.64903       -0.51872        1.36584
C         -2.42468        2.44324        1.30836
C         -3.00016        1.17711       -1.28208
C         -2.30739       -0.32457        1.09943
P         -1.77440        1.16698        0.13361
P          2.20124        0.17361       -0.31154
C          0.73928        2.89081        0.73690
O          0.97750        3.63829        1.58531
H          3.35879       -1.79154       -1.17408
H          1.63878       -2.07956       -0.90969
C          2.07231       -1.16014       -2.81277
H          2.69257       -0.33933       -3.21519
H          1.02736       -0.82853       -2.93035
C          2.31166       -2.42019       -3.63041
H          3.36045       -2.75043       -3.55905
H          1.68313       -3.25164       -3.27326
H          2.08140       -2.26269       -4.69505
H          3.67816        1.31786       -1.81118
H          3.72676        2.03528       -0.21007
C          5.09302        0.37518       -0.50450
C          5.56501       -0.54560       -1.45093
H          4.99952       -0.68860       -2.37554
C          5.86148        0.60803        0.65804
C          5.47095        1.65099        1.66647
H          4.48569        1.45623        2.11418
H          5.41804        2.65205        1.20848
H          6.20329        1.69799        2.48384
C          6.74002       -1.26448       -1.25152
H          7.08084       -1.97569       -2.00765
C          7.03904       -0.12484        0.84429
H          7.63190        0.05522        1.74540
C          7.47711       -1.06171       -0.08822
H          8.40040       -1.61853        0.08777
H          3.64885       -0.97356        1.27472
H          2.74156        0.35268        2.02825
C          1.67515       -1.51372        1.92736
C          1.78360       -2.86453        1.57323
H          2.60131       -3.17476        0.91790
C          0.65781       -1.12464        2.82292
C          0.52905        0.29978        3.27737
H          0.39313        0.97196        2.41688
H          1.42908        0.64029        3.81519
H         -0.32597        0.42480        3.95669
C          0.87797       -3.81516        2.03387
H          0.97246       -4.85735        1.72133
C         -0.23226       -2.09621        3.29324
H         -1.02079       -1.79456        3.98902
C         -0.14537       -3.42636        2.89257
H         -0.87094       -4.15684        3.25681
H         -3.39222        2.11540        1.72348
H         -1.70826        2.43300        2.14779
C         -2.52503        3.84984        0.73484
H         -3.36701        3.89976        0.02252
H         -1.61890        4.06126        0.14257
C         -2.70034        4.91257        1.80811
H         -3.59443        4.72276        2.42383
H         -1.82872        4.93332        2.48113
H         -2.80529        5.91554        1.36726
H         -3.04100        2.23090       -1.60271
H         -2.50128        0.63132       -2.09228
C         -4.37555        0.63429       -1.02651
C         -5.26419        1.34018       -0.20328
H         -4.95502        2.30403        0.20652
C         -4.80375       -0.58196       -1.60442
C         -3.94384       -1.35556       -2.56171
H         -2.99622       -1.67265       -2.10257
H         -3.69589       -0.75520       -3.45236
H         -4.46345       -2.26004       -2.90492
C         -6.53516        0.85449        0.09082
H         -7.20330        1.42823        0.73736
C         -6.08563       -1.05492       -1.29848
H         -6.41366       -1.99838       -1.74320
C         -6.94622       -0.35921       -0.45382
H         -7.93905       -0.75851       -0.23353
H         -1.70785       -0.29650        2.02294
H         -3.34872       -0.13756        1.39601
C         -2.18842       -1.67549        0.45452
C         -1.11321       -1.97725       -0.38508
H         -0.37082       -1.19851       -0.56864
C         -3.15711       -2.66856        0.71427
C         -4.31616       -2.40950        1.63188
H         -4.95382       -1.59165        1.25929
H         -3.97621       -2.12680        2.64138
H         -4.94704       -3.30390        1.72812
C         -0.98713       -3.22897       -0.98206
H         -0.13793       -3.43805       -1.63727
C         -3.01802       -3.91876        0.10276
H         -3.77143       -4.68674        0.29959
C         -1.94769       -4.20611       -0.74169
H         -1.86612       -5.19190       -1.20595
