92
Cat694.ts34.5.log	Energy: -1635450.8430352
C         -1.36217       -3.30674        0.10853
H         -1.65088       -3.79542        1.04219
H         -2.18106       -3.16911       -0.60233
C         -0.03768       -3.48936       -0.37292
H          0.69553       -4.04129        0.22087
H          0.12034       -3.59408       -1.45237
H          0.48146       -1.98500       -0.73393
Rh        -0.30167       -1.48890        0.59403
C         -0.78475        0.85318       -2.09109
O         -2.98432       -0.25583       -1.23880
O         -1.76906        1.41216        0.38049
C          1.75749        0.54673        2.62617
O          3.02714       -1.08594        0.97068
O          1.76249        0.89234       -0.10688
P          1.54287       -0.31504        1.03254
P         -1.46868        0.07846       -0.58637
C         -0.98349       -1.49816        2.36996
O         -1.44903       -1.47847        3.42207
H         -1.48506        1.61160       -2.47365
H          0.12314        1.36958       -1.74109
C         -0.43413       -0.17285       -3.16062
H         -1.35915       -0.65275       -3.52120
H          0.16700       -0.97544       -2.69927
C          0.33313        0.43362       -4.32450
H         -0.24786        1.22735       -4.82034
H          1.27876        0.88399       -3.98180
H          0.57806       -0.32517       -5.08353
C         -3.90672       -1.01223       -0.57132
C         -4.08945       -0.89836        0.80541
H         -3.49595       -0.17438        1.36719
C         -4.67285       -1.90908       -1.31885
H         -4.51072       -1.97494       -2.39627
C         -5.02176       -1.70669        1.46719
C         -5.19047       -1.58249        2.95354
H         -4.21935       -1.65009        3.46738
H         -5.62935       -0.60729        3.22011
H         -5.84861       -2.36719        3.35183
C         -5.61109       -2.70101       -0.66642
H         -6.21329       -3.40852       -1.24172
C         -5.77890       -2.61050        0.71618
H         -6.51013       -3.24843        1.21899
C         -2.24083        2.64402        0.02743
C         -3.27772        2.82509       -0.88816
H         -3.72991        1.95191       -1.36121
C         -1.66811        3.74478        0.67116
H         -0.88066        3.57256        1.40725
C         -3.73806        4.11263       -1.19189
C         -4.84341        4.29111       -2.19240
H         -4.51064        4.00804       -3.20422
H         -5.70772        3.65449       -1.94825
H         -5.18751        5.33390       -2.23211
C         -2.12908        5.02255        0.37617
H         -1.68646        5.88563        0.87957
C         -3.15227        5.20943       -0.55318
H         -3.50695        6.21811       -0.77901
H          1.04318        1.38827        2.57662
H          1.33358       -0.15609        3.36328
C          3.14196        1.00376        3.07205
H          3.53686        1.75554        2.37354
H          3.83212        0.14746        3.02176
C          3.11512        1.57861        4.47998
H          2.45082        2.45549        4.54169
H          2.75316        0.83827        5.21149
H          4.11884        1.89936        4.79739
C          3.29798       -2.04080        0.03101
C          3.04344       -1.81826       -1.32366
H          2.62286       -0.86094       -1.63781
C          3.84241       -3.25069        0.46007
H          4.03000       -3.39917        1.52465
C          3.30661       -2.81439       -2.27022
C          2.96639       -2.58431       -3.71428
H          3.13727       -1.53809       -4.00721
H          3.55686       -3.23116       -4.37845
H          1.90143       -2.80138       -3.90378
C          4.12358       -4.23572       -0.48179
H          4.55288       -5.18610       -0.15546
C          3.85331       -4.02565       -1.83398
H          4.07139       -4.81206       -2.56100
C          2.69473        1.89585       -0.07505
C          4.04575        1.63005       -0.29031
H          4.36818        0.60063       -0.45440
C          2.24600        3.20144        0.12850
H          1.17845        3.38181        0.26559
C          4.98210        2.66997       -0.27027
C          6.43945        2.37018       -0.47024
H          6.84654        1.80802        0.38579
H          6.60053        1.75187       -1.36654
H          7.03001        3.29038       -0.57873
C          3.17438        4.23755        0.14276
H          2.83499        5.26397        0.30144
C          4.53087        3.97562       -0.04761
H          5.25092        4.79767       -0.03169
