90
Cat792.ts34.5.log	Energy: -1588549.6042238
C         -2.38126        1.11764       -2.90273
H         -2.30696        0.67150       -3.89837
H         -3.40222        1.14776       -2.50570
C         -1.48735        2.18865       -2.57922
H         -0.69067        2.45632       -3.27993
H         -1.88658        3.06586       -2.05632
H         -1.00320        1.82788       -1.09625
Rh        -0.88134        0.29217       -1.62159
C         -3.60898        0.11231        0.95962
C         -3.22908       -2.14668       -0.58502
C         -1.23959       -1.55422        1.34245
C          2.09314       -1.27119       -0.78081
C          2.36937        1.50753       -1.51163
C          1.33271        0.94080        1.08956
P          1.21304        0.36658       -0.64983
P         -2.21070       -0.72949        0.02143
C         -0.42959       -1.09578       -2.81729
O         -0.15102       -1.95067       -3.54033
H         -4.39972        0.17424        0.19440
H         -3.96861       -0.58277        1.73352
C         -3.35410        1.47220        1.53124
C         -3.36190        1.69471        2.91352
H         -3.55696        0.86147        3.59379
C         -3.13315        2.56212        0.68331
H         -3.16039        2.39803       -0.39578
C         -3.14271        2.97219        3.42247
H         -3.16362        3.13702        4.50261
C         -2.88537        3.84715        1.17562
C         -2.58675        4.97710        0.23377
H         -3.22129        4.93209       -0.66399
H         -2.73735        5.95545        0.71143
H         -1.53827        4.93403       -0.10676
C         -2.89697        4.04029        2.56196
H         -2.72040        5.03989        2.96858
C         -3.52828       -2.24919       -1.94623
C         -3.76661       -3.09223        0.30014
C         -4.87194       -4.21353       -1.53171
C         -4.57935       -4.11988       -0.17021
C         -4.34704       -3.27572       -2.41748
H         -3.10487       -1.51560       -2.63557
H         -4.56808       -3.34495       -3.48531
H         -5.50757       -5.02215       -1.90088
H         -4.98544       -4.85450        0.52964
H         -3.53326       -3.03394        1.36682
C         -0.98603       -0.94085        2.57497
C         -0.61932       -2.78204        1.06202
C          0.47036       -2.76034        3.22003
C          0.22040       -3.38319        1.99591
C         -0.13494       -1.53836        3.50367
H         -1.43400        0.02463        2.80945
H          0.06011       -1.03410        4.45271
H          1.13522       -3.22863        3.94997
H          0.68376       -4.34580        1.76428
H         -0.80512       -3.27432        0.10330
H          1.41972       -1.97621       -0.27166
H          2.01492       -1.48822       -1.85762
C          3.50682       -1.45447       -0.31801
C          4.58309       -0.84783       -0.97644
H          4.40510       -0.22779       -1.85708
C          3.77264       -2.26412        0.79370
H          2.93217       -2.73841        1.30911
C          5.88068       -1.02738       -0.50311
H          6.71382       -0.54104       -1.01654
C          5.06899       -2.45771        1.27828
C          5.31901       -3.34858        2.46098
H          4.43714       -3.40342        3.11592
H          5.55222       -4.37714        2.13820
H          6.17103       -2.99528        3.06026
C          6.12424       -1.81768        0.61766
H          7.14720       -1.94590        0.98254
C          2.33589        1.53172       -2.91244
C          3.29652        2.31069       -0.83928
C          4.16328        3.11038       -2.95045
C          4.18536        3.11031       -1.55728
C          3.23520        2.31785       -3.62773
H          1.58671        0.92869       -3.43434
H          3.20453        2.32063       -4.72009
H          4.86369        3.73475       -3.51052
H          4.90430        3.73418       -1.02056
H          3.33012        2.30836        0.25188
C          2.34146        0.54590        1.97784
C          0.37845        1.86771        1.52694
C          1.42224        1.97242        3.70117
C          0.42628        2.38681        2.81839
C          2.37731        1.05083        3.27657
H          3.10989       -0.15795        1.66401
H          3.16596        0.72102        3.95745
H          1.45490        2.36962        4.71890
H         -0.33483        3.10321        3.13267
H         -0.42833        2.16480        0.85358
