100
Cat725.ts34.5.log	Energy: -1794277.5451637
C         -0.64392        1.21210       -3.22972
H         -0.32698        0.78330       -4.18384
H         -1.72362        1.37797       -3.15024
C          0.23544        2.12455       -2.57286
H          1.22955        2.31141       -2.98773
H         -0.18885        3.01683       -2.09771
H          0.24279        1.62836       -1.04128
Rh         0.27279        0.11360       -1.63557
C         -3.09708        0.80620       -0.61639
C         -2.53486       -1.86518       -1.54466
C         -1.89631       -1.12408        1.16323
C          2.01784       -1.65139        0.92058
C          3.64932       -0.60875       -1.24369
C          2.64035        1.12445        0.87245
P          2.08671       -0.24188       -0.27469
P         -1.74529       -0.45971       -0.58828
C          0.69393       -1.36910       -2.71635
O          0.95606       -2.29741       -3.35165
H         -3.95670        0.45015       -0.02389
H         -3.44136        0.85186       -1.66234
C         -2.64506        2.18530       -0.14839
H         -2.07114        2.09285        0.78500
H         -1.93991        2.60458       -0.88515
C         -3.78119        3.18187        0.08252
H         -4.47717        2.72305        0.81022
C         -3.23574        4.46070        0.70734
H         -2.71876        4.25132        1.65732
H         -4.03848        5.18542        0.91368
H         -2.51460        4.94954        0.03039
C         -4.55933        3.47851       -1.19417
H         -5.36690        4.20415       -1.01097
H         -5.02101        2.57260       -1.61584
H         -3.89582        3.90590       -1.96512
H         -2.56990       -1.49441       -2.58099
H         -1.78954       -2.67577       -1.53615
C         -3.87092       -2.35420       -1.08459
C         -3.97493       -3.43929       -0.20226
H         -3.06801       -3.96441        0.11022
C         -5.05745       -1.72645       -1.48992
H         -5.01119       -0.89495       -2.19689
C         -5.20793       -3.87437        0.27751
H         -5.29049       -4.72115        0.96117
C         -6.29895       -2.14626       -1.02120
H         -7.22425       -1.66194       -1.33854
C         -6.35847       -3.21490       -0.13486
F         -7.54339       -3.62121        0.31930
H         -2.80367       -1.74394        1.21552
H         -1.02848       -1.78149        1.32351
C         -1.96571       -0.04314        2.19310
C         -0.81520        0.62760        2.62392
H          0.15520        0.30241        2.24864
C         -3.20249        0.38858        2.69017
H         -4.11408       -0.13172        2.38496
C         -0.88722        1.71593        3.48911
H          0.00653        2.24646        3.82333
C         -3.29738        1.47999        3.54919
H         -4.25955        1.82928        3.92791
C         -2.13540        2.14126        3.92699
F         -2.21899        3.20172        4.72958
H          1.35745       -1.32191        1.74039
H          3.01457       -1.80672        1.36376
C          1.45263       -2.92082        0.30275
H          0.50145       -2.66018       -0.19080
H          2.10628       -3.28073       -0.51248
C          1.21477       -4.06330        1.29174
H          0.61884       -3.65358        2.13030
C          0.39608       -5.16823        0.63431
H         -0.56949       -4.78629        0.26590
H          0.18893       -5.99068        1.33616
H          0.93255       -5.59330       -0.23005
C          2.51511       -4.61331        1.86756
H          2.32052       -5.40957        2.60241
H          3.10884       -3.83543        2.37082
H          3.14043       -5.04644        1.06849
H          3.35973       -1.39980       -1.95169
H          3.81751        0.29382       -1.85083
C          4.86652       -0.99820       -0.46593
C          5.80256       -0.04724       -0.03629
H          5.67678        1.00091       -0.31794
C          5.09285       -2.33777       -0.11625
H          4.39436       -3.10578       -0.45665
C          6.90901       -0.40625        0.73005
H          7.63998        0.33350        1.06116
C          6.19086       -2.71669        0.64964
H          6.36608       -3.75931        0.92108
C          7.08603       -1.74071        1.07078
F          8.13913       -2.09359        1.80561
H          2.07080        0.98664        1.80265
H          3.69793        0.94794        1.12413
C          2.41531        2.50334        0.33558
C          1.24798        3.20700        0.66149
H          0.51778        2.75679        1.33635
C          3.31841        3.10393       -0.54875
H          4.23785        2.58196       -0.82324
C          0.98719        4.46704        0.13081
H          0.07822        5.01498        0.38587
C          3.07310        4.36177       -1.09477
H          3.77504        4.83377       -1.78438
C          1.90487        5.02837       -0.74811
F          1.66112        6.23085       -1.26760
