92
Cat75.ts34.5.log	Energy: -1635442.7739348
C          0.07598       -3.27600       -2.02839
H          0.18598       -3.27801       -3.11558
H          0.83064       -3.85935       -1.49194
C         -1.22912       -3.17611       -1.47365
H         -2.09474       -3.01524       -2.12181
H         -1.46005       -3.74578       -0.56660
H         -1.05306       -2.01049       -0.28114
Rh        -0.14124       -1.23220       -1.35607
C          3.36121       -1.37488       -0.52499
O          1.72146        0.14361        1.00410
O          1.75055       -2.48171        1.17843
C         -0.75098        2.22916       -1.07993
O         -2.90086        0.68100       -0.97985
O         -1.31343        0.56789        1.04551
P         -1.27404        0.54479       -0.62061
P          1.63354       -1.23523        0.05017
C          0.31394       -0.48660       -3.04935
O          0.60088       -0.01096       -4.05790
H          4.02676       -1.44242        0.35132
H          3.41353       -2.34371       -1.04910
C          3.75832       -0.23155       -1.44728
H          3.03648       -0.16287       -2.27874
H          3.68372        0.72351       -0.90006
C          5.16650       -0.37818       -2.00502
H          5.24469       -1.33413       -2.55427
H          5.88592       -0.45154       -1.16930
C          5.57052        0.76735       -2.92238
H          4.84286        0.84000       -3.74985
H          5.48675        1.71863       -2.36733
C          6.97542        0.62462       -3.48469
H          7.23818        1.46734       -4.14193
H          7.07736       -0.30072       -4.07433
H          7.72623        0.58420       -2.67902
C          2.73975        0.53516        1.82401
C          3.19988        1.84837        1.68986
H          2.76158        2.48185        0.91550
C          3.27801       -0.30176        2.80553
H          2.90529       -1.32139        2.90412
C          4.19857        2.32339        2.53560
H          4.55291        3.35127        2.42641
C          4.28320        0.18447        3.63990
H          4.70311       -0.47202        4.40588
C          4.74732        1.49284        3.51250
H          5.53239        1.86524        4.17391
C          0.63230       -3.03593        1.73561
C          0.49946       -4.42471        1.70263
H          1.28732       -5.01731        1.23360
C         -0.35569       -2.24364        2.32428
H         -0.25037       -1.15802        2.32522
C         -0.63036       -5.02211        2.25712
H         -0.73308       -6.10955        2.22895
C         -1.48463       -2.85232        2.86931
H         -2.25807       -2.22898        3.32531
C         -1.62952       -4.23912        2.83702
H         -2.51580       -4.71033        3.26777
H          0.15739        2.39716       -0.47447
H         -0.39854        2.12740       -2.12016
C         -1.73096        3.38845       -0.96012
H         -2.61799        3.17471       -1.57744
H         -2.09567        3.47680        0.07362
C         -1.10571        4.71113       -1.38007
H         -0.74858        4.64061       -2.42397
H         -0.20517        4.89854       -0.76667
C         -2.05764        5.89132       -1.24540
H         -2.95910        5.69887       -1.85358
H         -2.40987        5.94825       -0.20024
C         -1.43750        7.21805       -1.65220
H         -2.14883        8.05063       -1.54214
H         -1.10729        7.19978       -2.70341
H         -0.55446        7.45171       -1.03559
C         -3.71106       -0.42154       -1.00262
C         -3.75149       -1.32116        0.06603
H         -3.11892       -1.15515        0.93899
C         -4.50270       -0.63037       -2.13153
H         -4.44215        0.08409       -2.95435
C         -4.58166       -2.43768       -0.00961
H         -4.59653       -3.14677        0.82172
C         -5.33732       -1.74374       -2.19038
H         -5.95541       -1.90620       -3.07666
C         -5.37705       -2.65431       -1.13355
H         -6.02590       -3.53109       -1.18805
C         -1.67694        1.63816        1.81690
C         -3.02427        1.93084        2.03509
H         -3.79078        1.31353        1.56413
C         -0.67333        2.40593        2.40844
H          0.36901        2.13243        2.23661
C         -3.36237        3.02463        2.82892
H         -4.41575        3.26261        2.99494
C         -1.02516        3.49725        3.19943
H         -0.24047        4.10229        3.65992
C         -2.36781        3.81464        3.40654
H         -2.63976        4.67238        4.02555
