86
Cat766.ts34.5.log	Energy: -2786902.5401555
C         -1.52349       -2.52384       -2.52501
H         -1.53610       -3.60318       -2.35222
H         -2.50679       -2.05133       -2.60312
C         -0.45107       -1.97335       -3.27919
H          0.37841       -2.61250       -3.59241
H         -0.67030       -1.16218       -3.98111
H          0.03099       -0.66410       -2.37716
Rh        -0.20941       -1.60480       -1.08610
O         -2.67534        0.48057       -1.74603
C         -3.14220       -0.60456        0.69926
C         -1.28448        1.51616        0.34333
O          1.61118       -0.13537        1.24239
C          3.00097       -2.15806        0.06332
C          2.71582        0.40494       -1.18559
P          1.76099       -0.86162       -0.27793
P         -1.78124       -0.07568       -0.40660
C         -0.15574       -3.17402       -0.01515
O         -0.13342       -4.12342        0.63330
C         -3.99002        0.85837       -1.65693
C         -4.98242       -0.12021       -1.73337
H         -4.68172       -1.16065       -1.87380
C         -4.33757        2.19760       -1.47999
H         -3.55929        2.95905       -1.42843
C         -6.33060        0.20681       -1.57625
C         -7.37672       -0.86911       -1.55039
H         -7.51642       -1.24528       -0.52266
H         -8.35033       -0.49635       -1.89963
H         -7.09032       -1.72664       -2.17604
C         -5.68414        2.53504       -1.35352
H         -5.96485        3.58234       -1.21709
C         -6.67049        1.55280       -1.38794
H         -7.72069        1.83148       -1.26864
C         -3.46296       -1.96525        0.72552
H         -2.79682       -2.67665        0.23108
C         -3.99666        0.30585        1.33752
H         -3.76878        1.37323        1.32622
C         -4.62968       -2.41410        1.33742
H         -4.88916       -3.47376        1.34581
C         -5.16530       -0.12673        1.95203
H         -5.84561        0.58298        2.42474
C         -5.48287       -1.48477        1.92901
Cl        -6.97486       -2.02004        2.62571
C         -1.05066        1.61604        1.72070
H         -1.19764        0.74581        2.36457
C         -1.03783        2.63039       -0.46615
H         -1.19515        2.55577       -1.54479
C         -0.64085        2.81756        2.28789
H         -0.46707        2.89932        3.36164
C         -0.62414        3.83944        0.08845
H         -0.44838        4.71448       -0.53942
C         -0.44754        3.92870        1.46776
Cl         0.02921        5.43804        2.17333
C          2.55341        0.71276        1.76937
C          2.55620        2.05332        1.38513
H          1.80488        2.39401        0.67076
C          3.49808        0.23832        2.68075
H          3.48370       -0.80835        2.98334
C          3.52990        2.93578        1.86229
C          3.57473        4.35112        1.36546
H          3.88529        4.38343        0.30795
H          2.58768        4.83120        1.43293
H          4.28870        4.95638        1.94141
C          4.45319        1.11936        3.18214
H          5.19475        0.75763        3.89860
C          4.47788        2.45063        2.77036
H          5.24497        3.12580        3.15826
C          2.95414       -2.85537        1.27589
H          2.24167       -2.55205        2.04623
C          3.89033       -2.58685       -0.92979
H          3.92510       -2.07175       -1.89317
C          3.79355       -3.94009        1.50804
H          3.75746       -4.48377        2.45332
C          4.73633       -3.66850       -0.70897
H          5.43522       -3.99922       -1.47886
C          4.68574       -4.33814        0.51370
Cl         5.73769       -5.68310        0.79527
C          4.07189        0.63922       -0.91585
H          4.62279       -0.02876       -0.25056
C          2.03082        1.29574       -2.01758
H          0.97244        1.12070       -2.22568
C          4.72440        1.74321       -1.45146
H          5.77413        1.93600       -1.22608
C          2.66698        2.41094       -2.55276
H          2.12832        3.11522       -3.18848
C          4.01030        2.63256       -2.25357
Cl         4.79698        4.04832       -2.86241
