58
Cat755.ts34.5.log	Energy: -1152717.7713131
C          4.34029       -1.30780       -0.24001
H          5.11517       -0.93963        0.43731
H          4.14088       -2.38039       -0.15203
C          4.22210       -0.69483       -1.52516
H          4.83774        0.17592       -1.76602
H          4.03077       -1.33351       -2.39420
H          2.58951       -0.46100       -1.68542
Rh         2.62604       -0.03204       -0.12034
O         -0.30961       -1.52450       -0.57881
C          1.41383       -3.40928        0.37187
C          0.33322       -1.46625        2.10509
O         -0.18340        1.49627        0.43745
C          1.55778        3.32786       -0.55851
C          0.31975        1.42628       -2.27204
P          1.11600        1.55837       -0.63843
P          1.05119       -1.61424        0.43060
C          3.26367        0.92163        1.39066
O          3.60280        1.52025        2.31553
C         -1.48780       -2.17787       -0.36683
C         -2.45637       -1.61872        0.46907
H         -2.22930       -0.68170        0.97963
C         -1.75446       -3.36769       -1.04913
H         -0.99338       -3.78235       -1.71261
C         -3.70539       -2.22678        0.63094
C         -4.72969       -1.60715        1.53739
H         -4.74371       -0.51157        1.43327
H         -5.73901       -1.98803        1.32682
H         -4.50577       -1.82796        2.59422
C         -2.99416       -3.98073       -0.88770
H         -3.21187       -4.90714       -1.42498
C         -3.96290       -3.41751       -0.05810
H         -4.93534       -3.90442        0.05162
H          1.78083       -3.67579       -0.62984
H          2.21244       -3.61984        1.09912
H          0.53221       -4.02172        0.61591
H          1.16211       -1.61364        2.81380
H         -0.04040       -0.44007        2.22564
H         -0.46481       -2.19473        2.31290
C         -1.35223        2.18873        0.30314
C         -2.38409        1.66351       -0.47608
H         -2.21471        0.72340       -1.00326
C         -1.54068        3.37788        1.01124
H         -0.72963        3.76338        1.63165
C         -3.62319        2.30742       -0.55578
C         -4.71984        1.72154       -1.39756
H         -4.54344        1.91766       -2.46810
H         -4.77488        0.62904       -1.27510
H         -5.69916        2.14864       -1.13971
C         -2.76991        4.02680        0.92995
H         -2.92827        4.95338        1.48720
C         -3.80300        3.49858        0.15662
H         -4.76613        4.01341        0.11111
H          1.97505        3.54542        0.43494
H          2.34063        3.51713       -1.30750
H          0.69368        3.98174       -0.75289
H          1.10892        1.55497       -3.02744
H         -0.09201        0.41172       -2.36411
H         -0.46787        2.17794       -2.42716
