92
Cat79.ts34.5.log	Energy: -2788730.5399788
C          0.97189       -3.97280        0.88807
H          0.85103       -4.47267        1.85222
H          0.50088       -4.49526        0.04936
C          2.16467       -3.22919        0.65212
H          2.89113       -3.08982        1.45712
H          2.63032       -3.27119       -0.33854
H          1.61589       -1.83016       -0.01756
Rh         0.44340       -1.89317        1.09532
C         -2.64946       -2.97049       -0.41458
O         -2.04792       -0.32776       -0.33988
O         -0.92788       -1.94408       -2.06664
C         -0.09455        1.33942        2.44778
O          2.39141        0.79058        1.71299
O          0.66624        1.04057       -0.17977
P          0.85207        0.29295        1.29622
P         -1.24537       -1.80281       -0.41494
C         -0.25313       -2.12104        2.85495
O         -0.69248       -2.23791        3.91161
H         -3.29485       -2.76180       -1.28326
H         -2.19851       -3.96332       -0.58072
C         -3.43408       -2.93723        0.88879
H         -2.74690       -3.10625        1.73525
H         -3.85601       -1.92843        1.03768
C         -4.55928       -3.96094        0.93009
H         -4.13860       -4.97286        0.78632
H         -5.23819       -3.79341        0.07432
C         -5.35858       -3.92344        2.22501
H         -4.67381       -4.08282        3.07656
H         -5.77301       -2.90889        2.36207
C         -6.48215       -4.94606        2.27034
H         -7.04142       -4.89350        3.21661
H         -6.09281       -5.97214        2.17110
H         -7.20058       -4.78711        1.45004
C         -3.21088        0.04356       -0.94341
C         -4.12363        0.76576       -0.16864
H         -3.88829        0.95365        0.88101
C         -3.48936       -0.21003       -2.29013
H         -2.77317       -0.76784       -2.89368
C         -5.30760        1.23240       -0.72856
H         -6.02313        1.79676       -0.12843
C         -4.67923        0.24997       -2.84897
H         -4.90569        0.05575       -3.89860
C         -5.58339        0.96957       -2.07028
Cl        -7.05878        1.54438       -2.77277
C          0.26183       -1.50788       -2.57901
C          1.29452       -2.42230       -2.78596
H          1.13027       -3.47176       -2.53407
C          0.44234       -0.16297       -2.89852
H         -0.36738        0.54589       -2.72129
C          2.51540       -1.99405       -3.29810
H          3.33252       -2.69930       -3.45798
C          1.66004        0.27298       -3.41101
H          1.81657        1.32647       -3.64856
C          2.69257       -0.64452       -3.59966
Cl         4.22703       -0.09718       -4.19902
H         -1.08493        1.43278        1.96774
H         -0.25351        0.70169        3.33345
C          0.46330        2.69577        2.85902
H          1.43911        2.55005        3.34887
H          0.66113        3.31447        1.97148
C         -0.48218        3.44817        3.78455
H         -0.67353        2.84630        4.69182
H         -1.46309        3.56254        3.28754
C          0.04043        4.82131        4.18301
H          1.02439        4.70535        4.67076
H          0.22841        5.41151        3.26864
C         -0.90124        5.58315        5.10109
H         -0.49677        6.57102        5.36844
H         -1.07953        5.03190        6.03847
H         -1.88123        5.74390        4.62344
C          3.49465        0.12263        1.25766
C          3.72073       -0.06895       -0.10751
H          3.00085        0.30023       -0.83961
C          4.40198       -0.37021        2.19477
H          4.19935       -0.21775        3.25616
C          4.85622       -0.75278       -0.53384
H          5.04207       -0.89490       -1.59959
C          5.53822       -1.05274        1.77213
H          6.25411       -1.44498        2.49615
C          5.75776       -1.24467        0.40769
Cl         7.16693       -2.10426       -0.12137
C          0.56114        2.38069       -0.40764
C          1.70207        3.18058       -0.49578
H          2.68652        2.73399       -0.34901
C         -0.70633        2.93339       -0.59801
H         -1.58030        2.28215       -0.54590
C          1.57146        4.54400       -0.74148
H          2.45274        5.18434       -0.80315
C         -0.83869        4.29676       -0.84305
H         -1.82393        4.74282       -0.98737
C          0.30136        5.09793       -0.90527
Cl         0.13956        6.79748       -1.19780
