62
Cat759.ts34.5.log	Energy: -1341450.0716607
C         -0.81568       -4.06861       -0.54276
H         -0.36789       -4.88825        0.02481
H         -1.89128       -3.93498       -0.39829
C         -0.24007       -3.71677       -1.79445
H          0.67885       -4.20515       -2.12903
H         -0.90385       -3.43014       -2.61647
H         -0.14274       -2.03504       -1.71552
Rh         0.29946       -2.26560       -0.18206
O         -1.51063        0.50240       -0.19670
O         -2.98241       -1.57734        0.16499
O         -1.73330       -0.65978        2.06791
O          1.65601        0.57615        0.62085
O          3.37815       -0.85327       -0.40467
O          1.61333        0.16694       -1.93509
P          1.75356       -0.61209       -0.51663
P         -1.48493       -1.02623        0.48478
C          1.27728       -3.05734        1.24949
O          1.87559       -3.53172        2.10939
C         -2.56472        1.36672       -0.08328
C         -3.51883        1.40353       -1.09905
H         -3.40126        0.72089       -1.94341
C         -2.66742        2.21548        1.02036
H         -1.91010        2.17479        1.80396
C         -4.60480        2.28148       -1.02636
C         -5.61744        2.32838       -2.13397
H         -5.87983        1.31797       -2.48159
H         -6.54078        2.83219       -1.81518
H         -5.22284        2.87796       -3.00457
C         -3.74664        3.09140        1.09641
H         -3.84078        3.75726        1.95773
C         -4.70890        3.12257        0.08808
H         -5.55382        3.81187        0.16434
C         -4.13714       -1.36616        0.96034
H         -3.98506       -1.74598        1.98083
H         -4.40599       -0.30063        1.01246
H         -4.95395       -1.92084        0.47883
C         -0.64093       -0.33892        2.90273
H          0.12984       -1.12550        2.87133
H         -0.17056        0.61170        2.60495
H         -1.03058       -0.25203        3.92586
C          2.06681        1.87343        0.44652
C          3.39983        2.21871        0.65143
H          4.10541        1.43155        0.92515
C          1.11806        2.82967        0.08571
H          0.08682        2.51411       -0.07796
C          3.81689        3.54449        0.48693
C          5.24923        3.92347        0.73032
H          5.93961        3.16746        0.32744
H          5.49398        4.89184        0.27154
H          5.45533        4.00692        1.81030
C          1.53130        4.14833       -0.07912
H          0.80215        4.90903       -0.36844
C          2.86650        4.50280        0.11530
H          3.17791        5.54162       -0.02226
C          3.95782       -1.99057       -1.00843
H          3.27651       -2.85697       -0.94748
H          4.19694       -1.79899       -2.06822
H          4.88605       -2.22021       -0.46776
C          2.58040        1.01669       -2.52695
H          2.31635        2.07040       -2.35539
H          3.58485        0.83124       -2.11875
H          2.58231        0.81287       -3.60756
