90
Cat775.ts34.5.log	Energy: -2975659.2735131
C         -0.44499       -1.79392       -3.71939
H         -0.27441       -2.85952       -3.88959
H         -1.47940       -1.45569       -3.82104
C          0.60523       -0.88816       -4.00197
H          1.58217       -1.26653       -4.31369
H          0.35215        0.09221       -4.41930
H          0.76880        0.03524       -2.64808
Rh         0.41853       -1.29439       -1.79322
O         -1.62036        0.87018        0.17356
O         -2.53741        0.18346       -2.09762
O         -2.33530       -1.46500       -0.09272
O          3.54654       -1.84535       -0.90923
O          2.86086        0.64928       -0.79271
O          2.24314       -1.04314        1.03728
P          2.26041       -0.88242       -0.62059
P         -1.47103       -0.35635       -0.94007
C          0.29495       -3.09675       -1.19149
O          0.19076       -4.16936       -0.80288
C         -1.05606        2.11521        0.17067
C          0.06436        2.44746       -0.58629
H          0.52890        1.69857       -1.22681
C         -1.64799        3.05801        1.01418
H         -2.51779        2.77321        1.60831
C          0.62570        3.72673       -0.49696
C          1.86911        4.05368       -1.27132
H          2.76974        3.77531       -0.69956
H          1.90873        3.49975       -2.22005
H          1.93651        5.12850       -1.49213
C         -1.09578        4.33161        1.09740
H         -1.55397        5.07287        1.75672
C          0.03277        4.66803        0.35058
H          0.45711        5.67241        0.42483
C         -3.81072        0.64794       -1.86120
C         -4.02017        1.95058       -1.41434
H         -3.17232        2.62395       -1.28310
C         -4.89131       -0.20613       -2.07690
H         -4.70590       -1.21589       -2.44536
C         -5.31061        2.37676       -1.11267
H         -5.48772        3.38762       -0.74213
C         -6.18094        0.21387       -1.77426
H         -7.03104       -0.45744       -1.90256
C         -6.38190        1.50026       -1.27395
Cl        -7.98034        2.00981       -0.84383
C         -3.60090       -1.46408        0.43591
C         -4.38117       -2.59163        0.17828
H         -3.95342       -3.40258       -0.41410
C         -4.10357       -0.42365        1.21723
H         -3.47694        0.43553        1.44226
C         -5.68741       -2.65850        0.64951
H         -6.31143       -3.52912        0.44173
C         -5.41411       -0.48490        1.67952
H         -5.82650        0.33444        2.26988
C         -6.20626       -1.59242        1.38347
Cl        -7.84865       -1.64673        1.93198
C          4.77001       -1.91883       -0.26997
C          4.86791       -2.41093        1.02704
H          3.96150       -2.72674        1.54407
C          5.90210       -1.52130       -0.97827
H          5.79242       -1.15116       -1.99818
C          6.11285       -2.46274        1.66545
C          6.21811       -2.99777        3.06429
H          5.41441       -2.60660        3.70612
H          6.13179       -4.09679        3.07201
H          7.18210       -2.73789        3.52356
C          7.13838       -1.56785       -0.34500
H          8.03055       -1.22987       -0.87701
C          7.24344       -2.02444        0.96871
H          8.21969       -2.04492        1.45955
C          4.11087        1.11221       -0.46683
C          4.84706        1.72605       -1.47912
H          4.40518        1.81206       -2.47325
C          4.64034        0.99852        0.81961
H          4.06780        0.50624        1.60440
C          6.13148        2.19350       -1.22151
H          6.72237        2.66370       -2.00901
C          5.92874        1.45418        1.07614
H          6.36617        1.34007        2.06866
C          6.67277        2.04047        0.05385
Cl         8.29131        2.57134        0.36812
C          1.17848       -0.59755        1.78345
C          0.14449       -1.47820        2.09899
H          0.18055       -2.50361        1.72915
C          1.15327        0.71829        2.24254
H          1.95857        1.40413        1.97701
C         -0.93195       -1.03649        2.86126
H         -1.76154       -1.70579        3.09263
C          0.08528        1.16013        3.01622
H          0.04583        2.19162        3.36672
C         -0.95818        0.28420        3.30498
Cl        -2.33131        0.86338        4.19431
