120
Cat74.ts34.5.log	Energy: -2021210.3084069
C         -0.90932        2.97120       -1.81788
H         -0.40283        3.12667       -2.77322
H         -1.99769        3.07794       -1.84733
C         -0.20530        3.26108       -0.62026
H          0.83621        3.59838       -0.66832
H         -0.76302        3.71352        0.20984
H         -0.18176        1.98114        0.31880
Rh        -0.23499        1.07006       -1.02784
C         -2.74530        0.89350        1.43565
C         -3.61594       -0.54321       -0.84654
C         -1.56163       -1.72537        0.61842
C          2.57319       -1.04783       -1.30138
C          3.21431        1.53906       -0.38376
C          1.79251       -0.23847        1.46961
P          1.82435        0.30333       -0.29583
P         -2.03268       -0.04544        0.00551
C         -0.15730        0.21817       -2.68510
O         -0.12440       -0.31334       -3.71378
H         -3.43008        0.27079        2.02549
H         -1.89029        1.15935        2.07412
C         -3.43899        2.14705        0.92069
H         -2.79831        2.64250        0.17250
H         -4.35971        1.86460        0.38145
C         -3.77746        3.13763        2.02497
H         -2.84801        3.42051        2.55441
H         -4.41299        2.64439        2.78334
C         -4.47000        4.39568        1.52038
H         -3.83190        4.87301        0.75530
H         -5.39815        4.10965        0.99471
C         -4.79028        5.39639        2.61888
H         -5.28944        6.29373        2.22216
H         -3.87523        5.72719        3.13687
H         -5.45472        4.95533        3.37967
C         -4.51618       -1.44098       -0.23706
O         -4.28296       -1.75200        1.05537
C         -4.85949       -2.89875        1.60882
H         -4.37670       -3.05026        2.58330
H         -5.94737       -2.78613        1.76316
H         -4.67233       -3.78749        0.98236
C         -3.90869       -0.12850       -2.16185
O         -3.10553        0.80493       -2.69334
C         -3.19512        1.12354       -4.04967
H         -2.37790        1.82739       -4.25223
H         -4.15662        1.60711       -4.29907
H         -3.06109        0.23334       -4.68813
C         -4.99490       -0.66395       -2.86996
H         -5.19794       -0.35052       -3.89311
C         -5.60385       -1.98065       -0.93624
H         -6.28260       -2.68330       -0.45380
C         -5.82279       -1.59231       -2.25199
H         -6.66969       -2.00899       -2.80293
C         -1.41240       -2.10295        1.96238
O         -1.53210       -1.12676        2.88524
C         -1.68549       -1.46149        4.23133
H         -1.84559       -0.51827        4.77008
H         -2.55840       -2.12039        4.39061
H         -0.78616       -1.94824        4.64246
C         -1.35877       -2.71724       -0.36264
O         -1.45450       -2.30101       -1.63843
C         -1.31272       -3.21031       -2.68975
H         -1.39080       -2.62425       -3.61305
H         -2.10474       -3.97952       -2.67175
H         -0.32605       -3.70573       -2.67034
C         -1.10897       -4.05143       -0.01818
H         -0.98492       -4.81149       -0.78850
C         -1.17153       -3.43692        2.31951
H         -1.08526       -3.72100        3.36768
C         -1.03886       -4.40019        1.32581
H         -0.86354       -5.44252        1.60421
H          1.87213       -1.89256       -1.25997
H          2.52714       -0.63829       -2.32372
C          3.99377       -1.46547       -0.95906
H          4.67706       -0.62250       -1.15813
H          4.07782       -1.66970        0.11992
C          4.45182       -2.68625       -1.74410
H          4.37857       -2.47716       -2.82719
H          3.75267       -3.52242       -1.55743
C          5.86774       -3.13164       -1.40740
H          6.56339       -2.29438       -1.59388
H          5.93191       -3.33309       -0.32289
C          6.32044       -4.35749       -2.18407
H          7.34605       -4.65595       -1.91764
H          6.29978       -4.17154       -3.27012
H          5.66191       -5.21961       -1.98865
C          4.17194        1.79257        0.61964
O          4.23950        0.90919        1.63244
C          5.01723        1.18183        2.75864
H          4.81262        0.37562        3.47500
H          6.09668        1.19262        2.52402
H          4.74568        2.14709        3.22176
C          3.28748        2.33286       -1.54872
O          2.51045        1.94138       -2.57299
C          2.32134        2.77179       -3.68020
H          1.55594        2.28629       -4.29932
H          3.24583        2.88350       -4.27411
H          1.96296        3.77258       -3.38312
C          4.14224        3.43973       -1.63627
H          4.16099        4.05804       -2.53303
C          5.03241        2.89649        0.54367
H          5.74868        3.09651        1.33983
C          4.99366        3.72059       -0.57517
H          5.66570        4.58010       -0.63506
C          1.59305        0.75634        2.45042
O          1.51377        2.01925        1.98521
C          1.24666        3.07511        2.85856
H          1.19762        3.98171        2.24221
H          0.28239        2.94050        3.37997
H          2.04512        3.20009        3.61138
C          1.86373       -1.56938        1.91413
O          1.94681       -2.53465        0.97509
C          2.34009       -3.82549        1.34059
H          2.40994       -4.40313        0.40980
H          1.59978       -4.31265        1.99468
H          3.32599       -3.82133        1.83915
C          1.84714       -1.87885        3.28303
H          1.93566       -2.91326        3.61167
C          1.53700        0.45606        3.81310
H          1.40022        1.24341        4.55330
C          1.69302       -0.86582        4.21840
H          1.67978       -1.11009        5.28360
