92
Cat77.ts34.5.log	Energy: -1884416.6517108
C         -0.29142       -3.72736       -1.47210
H         -0.09662       -3.99700       -2.51299
H          0.29162       -4.29921       -0.74324
C         -1.60128       -3.29371       -1.11470
H         -2.35893       -3.14771       -1.88921
H         -2.02415       -3.61727       -0.15742
H         -1.32346       -1.97026       -0.17816
Rh        -0.18658       -1.58434       -1.26232
C          3.10169       -2.29484        0.02917
O          1.94971        0.09263        0.59275
O          1.23483       -2.10532        1.82410
C         -0.32190        1.87875       -1.97076
O         -2.63723        0.73120       -1.38410
O         -0.95296        0.95512        0.54757
P         -1.02217        0.47483       -1.04444
P          1.48141       -1.48773        0.27320
C          0.50211       -1.32465       -3.02001
O          0.93338       -1.14715       -4.07195
H          3.70863       -2.16713        0.94043
H          2.87793       -3.37116       -0.06017
C          3.82756       -1.78255       -1.20603
H          3.17164       -1.88730       -2.08690
H          4.01819       -0.70114       -1.09733
C          5.14567       -2.49886       -1.46148
H          4.95737       -3.58197       -1.57575
H          5.79516       -2.39894       -0.57289
C          5.88275       -1.98024       -2.68816
H          5.22549       -2.07452       -3.57052
H          6.06458       -0.89759       -2.56680
C          7.19889       -2.69447       -2.94873
H          7.70761       -2.29689       -3.83989
H          7.04298       -3.77351       -3.10894
H          7.88832       -2.58593       -2.09593
C          3.02914        0.52741        1.30519
C          3.79494        1.55120        0.73944
H          3.52830        1.91890       -0.25355
C          3.34786        0.03900        2.57630
H          2.74428       -0.75640        3.01373
C          4.87523        2.08713        1.43354
H          5.48472        2.88700        1.00924
C          4.43493        0.56874        3.26825
H          4.70395        0.20249        4.26069
C          5.18527        1.58595        2.69243
F          6.22120        2.09331        3.35983
C         -0.01957       -2.09559        2.37100
C         -0.75949       -3.27796        2.39487
H         -0.31905       -4.18509        1.97691
C         -0.55443       -0.92127        2.90053
H          0.02864       -0.00072        2.86319
C         -2.04450       -3.28757        2.93049
H         -2.64827       -4.19653        2.95191
C         -1.83814       -0.92379        3.43950
H         -2.28429       -0.01388        3.84514
C         -2.56831       -2.10563        3.43878
F         -3.81660       -2.10259        3.91807
H          0.64519        2.07002       -1.47238
H         -0.06782        1.45398       -2.95640
C         -1.13498        3.15567       -2.13733
H         -2.09569        2.91026       -2.61720
H         -1.38750        3.58056       -1.15465
C         -0.39360        4.20321       -2.95592
H         -0.14609        3.79062       -3.95118
H          0.57624        4.42412       -2.47338
C         -1.17792        5.49729       -3.12177
H         -2.14877        5.27191       -3.59737
H         -1.42201        5.89886       -2.12233
C         -0.44123        6.55079       -3.93266
H         -1.03271        7.47333       -4.03316
H         -0.21543        6.18819       -4.94847
H          0.51712        6.82052       -3.46022
C         -3.58832       -0.19604       -1.05191
C         -3.70361       -0.69107        0.24977
H         -3.01078       -0.35707        1.02317
C         -4.45542       -0.63957       -2.05009
H         -4.34005       -0.24723       -3.06177
C         -4.68844       -1.62818        0.55429
H         -4.79506       -2.02050        1.56708
C         -5.44372       -1.57255       -1.74907
H         -6.13507       -1.93528       -2.51178
C         -5.54624       -2.05817       -0.44983
F         -6.49009       -2.95545       -0.16392
C         -1.11210        2.22681        1.01944
C         -2.38715        2.76534        1.20511
H         -3.26507        2.17591        0.93683
C          0.02468        2.96311        1.35752
H          1.00703        2.50797        1.22117
C         -2.52373        4.05786        1.70415
H         -3.50650        4.50875        1.85271
C         -0.10997        4.25582        1.85650
H          0.76137        4.85515        2.12631
C         -1.38354        4.78942        2.01830
F         -1.51537        6.02715        2.49305
