98
Cat738.ts34.5.log	Energy: -1732187.8571937
C         -0.84965        0.92676       -3.25717
H         -0.49854        0.34621       -4.11452
H         -1.93420        1.06299       -3.20331
C         -0.00365        1.94294       -2.73511
H          1.00129        2.08406       -3.14337
H         -0.45975        2.87677       -2.38976
H         -0.02932        1.68329       -1.11836
Rh         0.02127        0.11000       -1.47053
C         -1.96853        1.14235        1.27156
C         -3.54045        0.12888       -0.92764
C         -2.20318       -1.63463        0.76806
C          1.89890       -0.83575        1.44224
C          3.47376       -0.40934       -0.89343
C          2.34106        1.81711        0.47719
P          1.89586        0.13431       -0.12350
P         -1.89638       -0.05122       -0.12116
C          0.36836       -1.57912       -2.23413
O          0.58973       -2.60935       -2.70457
C         -1.68356        0.76067        2.58488
H         -1.52456       -0.29643        2.80655
C         -2.12590        2.51944        0.99502
O         -2.31908        2.83942       -0.29977
C         -2.49013        4.17935       -0.66417
H         -3.37441        4.62553       -0.17661
H         -2.64235        4.18882       -1.75067
H         -1.59944        4.78404       -0.41869
C         -1.58017        1.70237        3.60996
H         -1.34809        1.37600        4.62576
C         -2.05565        3.46295        2.02339
H         -2.19673        4.52316        1.81208
C         -1.77964        3.04892        3.32817
H         -1.71469        3.79536        4.12347
C         -3.73665       -0.57351       -2.12283
H         -2.90930       -1.15528       -2.54004
C         -4.60556        0.87108       -0.41063
H         -4.48522        1.41809        0.52769
C         -4.96404       -0.53808       -2.77603
H         -5.09469       -1.10151       -3.70452
C         -5.83001        0.91096       -1.07420
H         -6.65113        1.49641       -0.64992
C         -6.03289        0.21113       -2.26831
C         -7.34272        0.27821       -2.99808
H         -8.15796        0.60321       -2.33582
H         -7.29282        0.99428       -3.83561
H         -7.61643       -0.69851       -3.42455
C         -3.38332       -1.85002        1.49635
H         -4.14409       -1.06682        1.54211
C         -1.25818       -2.65598        0.71199
H         -0.34486       -2.49643        0.13677
C         -3.59652       -3.05110        2.15811
H         -4.52256       -3.19851        2.72166
C         -1.47948       -3.86284        1.37720
H         -0.72508       -4.65245        1.32559
C         -2.64555       -4.08258        2.11122
C         -2.89169       -5.38089        2.82211
H         -3.75587       -5.91187        2.39096
H         -2.02109       -6.04845        2.75624
H         -3.11451       -5.21659        3.88819
C          1.77919       -0.26241        2.70824
H          1.74223        0.82423        2.80193
C          1.95205       -2.24281        1.34437
O          2.02933       -2.73174        0.09228
C          2.24075       -4.09801       -0.12707
H          3.18724       -4.43537        0.32913
H          2.28804       -4.22835       -1.21470
H          1.41118       -4.70978        0.26704
C          1.71246       -1.05362        3.85663
H          1.61538       -0.58172        4.83662
C          1.91381       -3.03789        2.49069
H          1.96739       -4.12399        2.41170
C          1.78548       -2.43745        3.74357
H          1.74353       -3.06656        4.63593
C          3.59680       -0.36489       -2.28239
H          2.73279       -0.04959       -2.87487
C          4.57183       -0.83192       -0.13453
H          4.49562       -0.87057        0.95550
C          4.79031       -0.73223       -2.90092
H          4.86604       -0.68965       -3.99118
C          5.75803       -1.20501       -0.75707
H          6.60447       -1.53510       -0.14749
C          5.88949       -1.16382       -2.15221
C          7.16166       -1.60040       -2.81811
H          8.04545       -1.30302       -2.23422
H          7.19520       -2.69807       -2.92124
H          7.25650       -1.17355       -3.82676
C          3.61942        2.36500        0.34271
H          4.41843        1.78382       -0.12085
C          1.34281        2.60359        1.06929
H          0.33333        2.20370        1.17429
C          3.88716        3.65949        0.78910
H          4.89423        4.06799        0.66531
C          1.62047        3.88475        1.52839
H          0.82038        4.46258        2.00000
C          2.89926        4.44212        1.39155
C          3.18286        5.83964        1.85889
H          2.71441        6.58277        1.19239
H          2.78084        6.01403        2.86878
H          4.26191        6.04761        1.88027
