98
Cat776.ts34.5.log	Energy: -1732217.5095136
C          0.73014       -4.08755       -0.17292
H          0.74884       -4.69475       -1.08213
H          1.68040       -4.07186        0.37253
C         -0.48601       -4.02751        0.57379
H         -1.38794       -4.50411        0.18003
H         -0.43814       -4.06030        1.66819
H         -0.59795       -2.42598        0.93604
Rh        -0.13225       -2.17350       -0.58585
O          1.12718        0.42053        1.12439
C          3.14993       -1.43958        0.74787
C          2.10980        0.27486       -1.47241
O         -1.13927        0.74452       -1.52605
C         -3.32404       -0.96934       -1.49136
C         -2.14909        0.29040        0.95415
P         -1.71625       -0.56912       -0.62660
P          1.59306       -0.74994       -0.00887
C         -0.13939       -2.41442       -2.47431
O         -0.13708       -2.52286       -3.62095
C          1.79023        1.07253        2.12352
C          3.09075        1.56406        2.00426
H          3.63661        1.44173        1.06909
C          1.07587        1.28201        3.30964
H          0.05792        0.89869        3.39457
C          3.69709        2.25403        3.06167
C          5.09506        2.77556        2.89589
H          5.42803        3.32984        3.78437
H          5.80874        1.95400        2.72218
H          5.16038        3.44467        2.02383
C          1.67200        1.97437        4.35671
H          1.11013        2.13801        5.27959
C          2.97644        2.45475        4.24111
H          3.43704        2.99529        5.07175
H          2.80197       -2.31449        1.32165
H          3.56376       -0.72811        1.47489
C          4.20277       -1.83803       -0.24392
C          5.49594       -1.31078       -0.14494
H          5.72774       -0.61513        0.66637
C          3.92294       -2.72548       -1.29319
H          2.91624       -3.13931       -1.39078
C          6.48318       -1.65443       -1.06661
H          7.48679       -1.23328       -0.96829
C          4.90681       -3.06335       -2.21986
H          4.66625       -3.75071       -3.03449
C          6.19061       -2.52982       -2.11122
H          6.96156       -2.79760       -2.83750
H          1.14379        0.45889       -1.96407
H          2.67003       -0.42725       -2.10940
C          2.84199        1.55790       -1.26291
C          4.23251        1.64561       -1.40561
H          4.79622        0.76240       -1.71425
C          2.13120        2.70705       -0.89025
H          1.04487        2.64982       -0.79242
C          4.89874        2.84291       -1.14887
H          5.98451        2.89341       -1.26360
C          2.79613        3.90123       -0.62994
H          2.22686        4.78402       -0.32901
C          4.18435        3.97264       -0.75066
H          4.70661        4.91063       -0.54693
C         -1.83412        1.86763       -1.86508
C         -1.93370        2.93554       -0.97214
H         -1.45131        2.85627        0.00395
C         -2.40138        1.95990       -3.13894
H         -2.27565        1.13294       -3.84015
C         -2.64107        4.09297       -1.31657
C         -2.73154        5.23562       -0.34733
H         -1.75846        5.74373       -0.24832
H         -3.46681        5.98405       -0.67365
H         -3.01778        4.88809        0.65690
C         -3.10592        3.10850       -3.48627
H         -3.56005        3.18390       -4.47703
C         -3.23685        4.16095       -2.58094
H         -3.79804        5.05501       -2.86372
H         -3.30192       -2.06392       -1.57698
H         -3.18633       -0.57642       -2.51174
C         -4.63241       -0.52730       -0.90893
C         -5.01870        0.81999       -0.86892
H         -4.36591        1.58674       -1.29100
C         -5.50770       -1.48439       -0.37994
H         -5.22089       -2.53895       -0.40275
C         -6.23271        1.19500       -0.29721
H         -6.51140        2.25130       -0.27377
C         -6.72581       -1.11223        0.18380
H         -7.39034       -1.87776        0.59153
C         -7.09034        0.23219        0.23507
H         -8.04203        0.52896        0.68202
H         -2.92183        1.04234        0.74152
H         -1.20409        0.80241        1.19209
C         -2.56674       -0.58939        2.09386
C         -1.60798       -1.27223        2.85640
H         -0.55106       -1.14539        2.61580
C         -3.91584       -0.72962        2.43847
H         -4.67462       -0.18138        1.87709
C         -1.99073       -2.09485        3.91384
H         -1.22706       -2.61415        4.49831
C         -4.29956       -1.55410        3.49407
H         -5.35923       -1.65090        3.74287
C         -3.33996       -2.24664        4.23079
H         -3.64158       -2.89257        5.05886
