110
Cat777.ts34.5.log	Energy: -1830820.9982033
C         -0.41214        2.75876       -2.68272
H         -0.83645        3.74296       -2.46863
H          0.57351        2.77787       -3.15838
C         -1.30465        1.70082       -2.99787
H         -2.38420        1.85679       -2.93966
H         -1.01296        0.97759       -3.76792
H         -0.78136        0.45156       -2.06637
Rh        -0.55468        1.53978       -0.90124
O          1.91329       -0.44861       -1.66141
C          3.11834        1.95529       -0.97856
C          2.00953        0.23948        1.10765
O         -1.37088        0.17849        1.98064
C         -3.46633       -0.21691        0.19326
C         -1.00928       -1.78415        0.16276
P         -1.61389       -0.02222        0.31677
P          1.64701        0.85130       -0.61289
C         -0.90587        2.96384        0.30946
O         -1.11248        3.77340        1.10305
C          2.95336       -1.32474       -1.77959
C          2.82398       -2.59775       -1.22752
H          1.91206       -2.84096       -0.67843
C          4.09269       -0.98704       -2.51305
H          4.15854       -0.00764       -2.98946
C          3.84839       -3.53886       -1.34553
C          3.71511       -4.88176       -0.69049
H          3.84952       -4.78776        0.39951
H          2.71776       -5.31382       -0.86237
H          4.46684       -5.59120       -1.06393
C          5.11810       -1.92155       -2.63500
H          6.01578       -1.66535       -3.20318
C          5.00389       -3.18135       -2.05035
H          5.81745       -3.90413       -2.15163
H          4.01154        1.32564       -1.09778
H          2.90071        2.39431       -1.96356
C          3.36697        3.01892        0.05964
C          4.17642        2.72296        1.16581
H          4.63445        1.73552        1.24609
C          2.80838        4.31096       -0.04222
C          1.98559        4.71979       -1.22523
H          1.12431        4.05183       -1.35292
H          2.57383        4.68145       -2.15744
H          1.61210        5.74612       -1.10911
C          4.41242        3.65343        2.17304
H          5.04502        3.38562        3.02241
C          3.05424        5.23451        0.98042
H          2.61362        6.23176        0.89903
C          3.83904        4.91830        2.08490
H          4.00776        5.66106        2.86817
H          2.19842        1.19111        1.64091
H          1.02645       -0.07036        1.47955
C          3.05000       -0.78715        1.47748
C          4.33563       -0.79034        0.92381
H          4.59850       -0.05468        0.16648
C          2.73495       -1.77150        2.44191
C          1.40001       -1.81117        3.13129
H          0.57855       -2.00192        2.42556
H          1.16254       -0.85949        3.63108
H          1.37845       -2.60501        3.89048
C          5.28819       -1.74243        1.27027
H          6.27206       -1.71959        0.79734
C          3.70278       -2.72519        2.77996
H          3.45100       -3.48428        3.52602
C          4.96932       -2.72376        2.20333
H          5.70272       -3.48274        2.48594
C         -2.28324       -0.07962        2.96085
C         -2.45609       -1.36820        3.46646
H         -1.84140       -2.18287        3.07847
C         -3.02877        0.98436        3.47642
H         -2.86068        1.98711        3.07808
C         -3.39200       -1.62282        4.47606
C         -3.55142       -3.01227        5.02218
H         -3.56671       -3.76184        4.21634
H         -2.71330       -3.27073        5.69020
H         -4.47997       -3.11385        5.60094
C         -3.95864        0.73698        4.48097
H         -4.54746        1.56339        4.88624
C         -4.14629       -0.55494        4.97236
H         -4.88442       -0.73667        5.75755
H         -3.71466       -1.28137        0.29641
H         -3.88044        0.29315        1.07432
C         -4.04486        0.33682       -1.07622
C         -4.08209       -0.45855       -2.22634
H         -3.70156       -1.48064       -2.18103
C         -4.53985        1.65591       -1.13083
C         -4.54601        2.54079        0.08089
H         -3.52788        2.71147        0.45994
H         -5.13281        2.09950        0.90347
H         -4.98256        3.52172       -0.15104
C         -4.58823        0.03012       -3.42746
H         -4.60099       -0.61165       -4.31133
C         -5.04475        2.13104       -2.34647
H         -5.42885        3.15381       -2.39212
C         -5.06950        1.33496       -3.48983
H         -5.46675        1.73570       -4.42547
H          0.08697       -1.70019        0.17648
H         -1.31787       -2.30536        1.07655
C         -1.46383       -2.51651       -1.06157
C         -0.88048       -2.21236       -2.29910
H         -0.05842       -1.49304       -2.32881
C         -2.47388       -3.50105       -0.99377
C         -3.05393       -3.96150        0.31560
H         -3.51444       -3.14854        0.89856
H         -2.27716       -4.40839        0.95843
H         -3.82595       -4.72541        0.15165
C         -1.32394       -2.81747       -3.47115
H         -0.85852       -2.55955       -4.42512
C         -2.90497       -4.09815       -2.18443
H         -3.69078       -4.85706       -2.13872
C         -2.35332       -3.75392       -3.41643
H         -2.71532       -4.23384       -4.32874
