62
Cat784.ts34.5.log	Energy: -1107650.9312838
C         -1.14123       -3.94814       -0.37063
H         -0.77077       -4.73666        0.28961
H         -2.22723       -3.81171       -0.33307
C         -0.47232       -3.74782       -1.61913
H          0.43423       -4.31829       -1.84088
H         -1.08114       -3.56244       -2.51144
H         -0.27969       -2.13826       -1.71106
Rh         0.04745       -2.19205       -0.11262
C         -2.64757        0.03555       -0.98498
C         -3.04681       -1.44955        1.45586
C         -1.26863        0.72988        1.45797
C          2.60337        0.00999        0.85532
C          3.13383       -1.43652       -1.59219
C          1.30277        0.71827       -1.63267
P          1.74482       -0.74437       -0.61510
P         -1.69885       -0.73641        0.43152
C          0.86925       -2.80074        1.47288
O          1.37544       -3.12685        2.45860
H         -1.88308        0.52516       -1.60814
H         -3.02234       -0.82068       -1.56832
C         -3.74915        0.98035       -0.62737
C         -5.05368        0.52139       -0.40685
H         -5.28337       -0.53824       -0.54612
C         -3.48990        2.34679       -0.45666
H         -2.47670        2.71918       -0.63814
C         -6.05640        1.40604       -0.01699
H         -7.07059        1.03585        0.15272
C         -4.48326        3.24975       -0.06829
C         -4.18141        4.71378        0.07471
H         -3.10678        4.89258        0.22280
H         -4.48691        5.26935       -0.82765
H         -4.72223        5.15501        0.92507
C         -5.77511        2.75854        0.15645
H         -6.56804        3.44531        0.46522
H         -2.59286       -1.85232        2.37310
H         -3.81976       -0.71090        1.71778
H         -3.51221       -2.28897        0.91926
H         -2.14676        1.34044        1.71897
H         -0.78942        0.36321        2.37780
H         -0.54029        1.36039        0.92677
H          1.79833        0.44767        1.46511
H          2.99616       -0.84552        1.42665
C          3.67289        1.01315        0.56049
C          5.00137        0.61757        0.36410
H          5.27212       -0.43608        0.47039
C          3.35930        2.37283        0.43796
H          2.32598        2.69414        0.60296
C          5.97616        1.55918        0.04246
H          7.01019        1.23954       -0.10887
C          4.32420        3.33239        0.11938
C          3.96423        4.78742        0.03053
H          2.89157        4.92763       -0.16571
H          4.19700        5.30861        0.97416
H          4.52776        5.29390       -0.76694
C          5.64178        2.90476       -0.08437
H          6.41357        3.63653       -0.33846
H          3.58365       -2.26689       -1.02936
H          2.71915       -1.84810       -2.52386
H          3.90224       -0.68446       -1.82864
H          0.53796        1.31420       -1.11418
H          2.17314        1.35583       -1.84824
H          0.86675        0.35467       -2.57443
