102
Cat743.ts34.5.log	Energy: -1920920.5317128
C          0.92912       -4.16650       -0.96634
H          0.87930       -4.58726       -1.97354
H          1.93129       -4.11651       -0.53170
C         -0.19773       -4.32271       -0.11209
H         -1.11373       -4.77955       -0.49637
H         -0.02622       -4.52052        0.95143
H         -0.44632       -2.81640        0.50354
Rh        -0.06570       -2.26219       -0.96975
C          1.74833       -0.59477        1.59873
O          3.16307       -1.76360       -0.47003
O          1.81968        0.40506       -0.95409
C         -1.92562        0.58568       -1.76502
O         -3.27199       -1.67038       -1.13229
O         -2.12318       -0.44133        0.82481
P         -1.83123       -0.91924       -0.72648
P          1.68509       -1.05240       -0.17728
C         -0.02510       -2.10338       -2.86783
O          0.02515       -1.96651       -4.00749
C          1.38600        0.67308        2.05186
H          1.21174        1.46171        1.32272
C          1.90019       -1.62863        2.54726
O          2.19514       -2.84649        2.04718
C          2.27151       -3.95000        2.90647
H          3.09399       -3.84529        3.63534
H          2.46767       -4.82344        2.27225
H          1.32553       -4.10517        3.45369
C          1.23649        0.94379        3.41149
H          0.96332        1.94840        3.74091
C          1.74890       -1.36673        3.91076
H          1.87968       -2.16056        4.64639
C          1.42472       -0.07729        4.33629
H          1.31138        0.11878        5.40526
C          4.38742       -1.19821       -0.24881
C          4.98617       -1.25368        1.00806
H          4.47507       -1.77463        1.81707
C          5.04638       -0.57451       -1.30945
H          4.56254       -0.54964       -2.28744
C          6.22299       -0.64097        1.20640
H          6.68277       -0.67813        2.19800
C          6.28043        0.02592       -1.09657
H          6.78032        0.52709       -1.93013
C          6.88682        0.01839        0.16722
C          8.20607        0.70069        0.38742
H          8.57165        0.55019        1.41296
H          8.12531        1.78644        0.21587
H          8.97537        0.32182       -0.30388
C          2.51890        1.57292       -0.88089
C          2.18510        2.52210       -1.85149
H          1.41904        2.26355       -2.58481
C          3.49711        1.87674        0.06625
H          3.78720        1.14806        0.82194
C          2.81693        3.76031       -1.86643
H          2.54142        4.48834       -2.63527
C          4.11871        3.12330        0.03563
H          4.88421        3.34160        0.78560
C          3.79805        4.08976       -0.92227
C          4.50337        5.41465       -0.96381
H          3.82246        6.22659       -1.26047
H          5.33079        5.40376       -1.69338
H          4.93396        5.67282        0.01452
C         -2.44533        0.43384       -3.05476
H         -2.84771       -0.53908       -3.34590
C         -1.35281        1.82253       -1.40550
O         -0.80249        1.91676       -0.18370
C         -0.59951        3.18928        0.37844
H          0.26397        3.70036       -0.07912
H         -0.40397        3.02748        1.44564
H         -1.50466        3.81133        0.28229
C         -2.45434        1.48864       -3.96370
H         -2.86688        1.34657       -4.96427
C         -1.38277        2.89028       -2.31001
H         -0.95648        3.85350       -2.02926
C         -1.93024        2.71940       -3.57935
H         -1.93402        3.56073       -4.27665
C         -4.51233       -1.28496       -0.69751
C         -5.37385       -0.58765       -1.54250
H         -5.05529       -0.34556       -2.55653
C         -4.92492       -1.61520        0.59507
H         -4.24339       -2.16973        1.24160
C         -6.62733       -0.19320       -1.07677
H         -7.29350        0.35881       -1.74564
C         -6.17479       -1.20983        1.04558
H         -6.47937       -1.45955        2.06576
C         -7.04673       -0.48182        0.22510
C         -8.37884       -0.01955        0.74027
H         -9.00748        0.38002       -0.06796
H         -8.25653        0.77686        1.49282
H         -8.93045       -0.83991        1.22491
C         -2.69321        0.65181        1.41164
C         -2.24607        0.94561        2.70060
H         -1.47180        0.31364        3.13779
C         -3.67456        1.44805        0.82318
H         -4.04626        1.22653       -0.17632
C         -2.77005        2.03430        3.38855
H         -2.40475        2.25139        4.39680
C         -4.18272        2.53908        1.52529
H         -4.94991        3.15566        1.04830
C         -3.74796        2.85752        2.81585
C         -4.33249        4.01406        3.57460
H         -3.57709        4.50811        4.20404
H         -5.14509        3.68371        4.24363
H         -4.75573        4.76899        2.89612
