100
Cat71.ts34.5.log	Energy: -1545301.8580396
C          1.70536       -1.34906       -3.08438
H          1.59967       -0.88309       -4.06801
H          2.73996       -1.45038       -2.74101
C          0.75711       -2.35019       -2.70989
H         -0.09624       -2.56241       -3.36102
H          1.12395       -3.24544       -2.19387
H          0.37372       -1.94690       -1.17884
Rh         0.37347       -0.41097       -1.70036
C          2.14860       -0.87868        1.40678
C          3.58164        0.71226       -0.53892
C          1.34163        1.80614        0.80334
C         -2.12404        1.47073       -0.10376
C         -3.05998       -1.02060       -1.23341
C         -1.47647       -1.07075        1.14254
P         -1.57309       -0.24278       -0.49056
P          1.87572        0.25170       -0.02249
C          0.00525        1.07341       -2.80451
O         -0.22113        2.01130       -3.44076
H          2.81394       -0.42074        2.15805
H          1.16020       -0.98937        1.88084
C          2.65632       -2.24856        0.98673
H          1.97629       -2.65095        0.21617
H          3.64508       -2.15670        0.50348
C          2.73522       -3.22471        2.15146
H          1.75306       -3.25048        2.65664
H          3.45136       -2.84749        2.90443
C          3.12522       -4.63746        1.74289
H          2.40972       -5.00063        0.98366
H          4.10738       -4.61453        1.23850
C          3.16887       -5.60970        2.91066
H          3.44608       -6.62499        2.58869
H          2.18808       -5.67574        3.41000
H          3.90095       -5.29013        3.66990
C          3.79612        1.09947       -1.86504
H          2.95554        1.07197       -2.56348
C          4.66889        0.73775        0.34363
H          4.53564        0.45689        1.39100
C          5.05699        1.50876       -2.29396
H          5.19704        1.81492       -3.33457
C          5.92887        1.13275       -0.09258
H          6.76301        1.14464        0.61520
C          6.14768        1.52625       -1.41962
C          7.51606        1.92659       -1.88762
H          8.04594        2.51680       -1.12505
H          8.13546        1.03879       -2.09893
H          7.46867        2.52167       -2.81066
C          1.00195        1.89255        2.15604
H          1.14238        1.03729        2.81821
C          1.15175        2.94362        0.00235
H          1.40006        2.90064       -1.06117
C          0.44985        3.06424        2.67977
H          0.17776        3.09982        3.73891
C          0.61957        4.11034        0.53188
H          0.47621        4.97738       -0.11924
C          0.23786        4.18922        1.88050
C         -0.39449        5.43487        2.42777
H          0.18076        6.33224        2.15258
H         -1.41295        5.56916        2.02632
H         -0.47064        5.40148        3.52381
H         -1.31828        1.89777        0.51593
H         -2.05729        2.00866       -1.06313
C         -3.48619        1.68811        0.53644
H         -4.28053        1.41893       -0.17944
H         -3.62252        1.01360        1.39892
C         -3.66429        3.12881        0.99788
H         -3.50861        3.80828        0.14006
H         -2.86163        3.37525        1.71734
C         -5.01715        3.41392        1.63291
H         -5.81605        3.17714        0.90821
H         -5.17092        2.72347        2.48137
C         -5.16390        4.85040        2.10852
H         -6.14756        5.03153        2.56780
H         -5.05125        5.56037        1.27319
H         -4.39552        5.10238        2.85771
C         -3.13685       -1.11878       -2.62573
H         -2.28597       -0.77519       -3.22245
C         -4.13499       -1.48796       -0.46661
H         -4.09141       -1.43305        0.62400
C         -4.26781       -1.65417       -3.23695
H         -4.31104       -1.71635       -4.32806
C         -5.25747       -2.03141       -1.08319
H         -6.08675       -2.39231       -0.46782
C         -5.34579       -2.12368       -2.47844
C         -6.54588       -2.74090       -3.13472
H         -7.46781       -2.52395       -2.57538
H         -6.67428       -2.37754       -4.16437
H         -6.44577       -3.83828       -3.18393
C         -1.44700       -0.38165        2.35656
H         -1.57817        0.70068        2.38094
C         -1.28991       -2.46181        1.16619
H         -1.30349       -3.02147        0.22668
C         -1.21399       -1.05988        3.55545
H         -1.18230       -0.49461        4.49123
C         -1.07060       -3.13230        2.36083
H         -0.92475       -4.21637        2.34967
C         -1.01483       -2.44124        3.58181
C         -0.72897       -3.17256        4.85983
H         -1.41905       -4.01895        5.00058
H          0.29276       -3.58734        4.85506
H         -0.81764       -2.51168        5.73321
