86
Cat761.ts34.5.log	Energy: -1538679.4307842
C          1.37976       -0.35719       -2.86603
H          0.80522       -0.10169       -3.75992
H          2.32175        0.18701       -2.75943
C          1.26768       -1.67464       -2.34244
H          0.56511       -2.37878       -2.79688
H          2.16205       -2.15442       -1.92931
H          1.01649       -1.45648       -0.73110
Rh         0.09874       -0.19066       -1.14188
O          2.58209        0.57653        1.08348
O          2.34436        2.22888       -0.86506
O          0.80454        2.29436        1.12842
O         -2.28203       -0.01227        1.27094
O         -2.48747       -2.04869       -0.11163
O         -0.63169       -1.81345        1.61687
P         -1.30671       -1.01577        0.37810
P          1.42216        1.23158        0.04469
C         -1.19124        0.79304       -2.15389
O         -1.92747        1.37616       -2.81341
C          3.15467       -0.62194        0.76458
C          4.05063       -0.71401       -0.29903
H          4.28458        0.18876       -0.86715
C          2.81051       -1.75659        1.50048
H          2.07659       -1.66711        2.30142
C          4.62476       -1.94260       -0.64736
C          5.56187       -2.02920       -1.81711
H          5.03348       -1.81326       -2.76019
H          6.37939       -1.29692       -1.73085
H          6.00840       -3.02943       -1.90381
C          3.38139       -2.97857        1.16220
H          3.11260       -3.87383        1.72842
C          4.28022       -3.07443        0.09850
H          4.71738       -4.04243       -0.15951
C          3.11662        3.30626       -0.31888
H          3.21136        3.15999        0.77112
C          2.38875        4.60732       -0.59147
H          1.38667        4.57901       -0.14248
H          2.27957        4.76097       -1.67594
H          2.94220        5.46100       -0.17113
C          4.49624        3.25088       -0.94112
H          5.00788        2.31383       -0.67879
H          4.42251        3.31434       -2.03756
H          5.11439        4.08863       -0.58498
C          1.03142        2.34704        2.54497
H          2.10136        2.15874        2.72909
C          0.21451        1.28277        3.24656
H          0.46817        0.28397        2.86753
H         -0.86071        1.44003        3.07860
H          0.40917        1.30315        4.32969
C          0.67957        3.75313        2.98233
H          1.29367        4.49494        2.45159
H         -0.37992        3.96678        2.77327
H          0.84895        3.87049        4.06301
C         -3.04631        0.93725        0.63505
C         -4.31187        0.59492        0.16729
H         -4.65849       -0.43052        0.31004
C         -2.54030        2.22681        0.47051
H         -1.52689        2.45216        0.80663
C         -5.10829        1.54647       -0.47986
C         -6.47281        1.17162       -0.98208
H         -7.15942        0.95772       -0.14689
H         -6.91645        1.97782       -1.58273
H         -6.43245        0.26556       -1.60679
C         -3.33323        3.17491       -0.16826
H         -2.94795        4.18657       -0.31623
C         -4.60208        2.84047       -0.64003
H         -5.20810        3.59389       -1.14987
C         -2.41515       -2.73340       -1.36506
H         -1.83881       -2.09357       -2.05972
C         -3.83211       -2.88385       -1.87278
H         -4.30151       -1.89585       -1.98622
H         -4.43654       -3.47825       -1.16993
H         -3.84032       -3.38757       -2.85077
C         -1.68252       -4.04847       -1.18751
H         -0.65342       -3.87105       -0.83942
H         -2.19618       -4.68296       -0.44824
H         -1.63184       -4.59776       -2.13989
C         -1.38356       -2.59020        2.56696
H         -2.38566       -2.77056        2.14551
C         -1.51170       -1.81981        3.86453
H         -2.02079       -0.86278        3.69143
H         -0.51936       -1.61784        4.29603
H         -2.09352       -2.40181        4.59535
C         -0.66196       -3.91232        2.72271
H         -0.59491       -4.43358        1.75744
H          0.36045       -3.74903        3.09758
H         -1.19281       -4.56124        3.43523
