106
Cat750.ts34.5.log	Energy: -1547074.8145960
C          0.98911       -3.52999       -0.31288
H          1.16889       -4.03290       -1.26706
H          1.85061       -3.52033        0.36276
C         -0.31854       -3.61920        0.25780
H         -1.11735       -4.10741       -0.30837
H         -0.40904       -3.78556        1.33667
H         -0.61731       -2.08607        0.73992
Rh         0.08066       -1.63073       -0.65488
C          1.22590        0.29212        2.14122
C          3.34643       -1.06695        0.73416
C          2.07574        1.22562       -0.44376
C         -1.40364        1.33842       -1.86078
C         -3.24095       -0.79533       -1.49030
C         -2.22353        0.46277        0.86677
P         -1.66126       -0.13523       -0.77808
P          1.67229       -0.32523        0.46998
C          0.47850       -1.58370       -2.49729
O          0.74058       -1.51688       -3.62078
C          0.93798        1.63286        2.41032
H          1.11421        2.38009        1.63697
C          0.97280       -0.65123        3.16333
O          1.26922       -1.93492        2.86687
C          0.96703       -2.94462        3.78727
H          1.52494       -2.82017        4.73184
H          1.26533       -3.89186        3.32027
H         -0.11330       -2.98021        4.01230
C          0.40117        2.04108        3.63285
H          0.18768        3.09743        3.81162
C          0.43113       -0.25201        4.38715
H          0.22852       -0.98447        5.16877
C          0.14374        1.09499        4.61729
H         -0.28142        1.39598        5.57753
H          3.19433       -1.93367        1.39519
H          3.97493       -0.34936        1.28426
C          3.98334       -1.49911       -0.57883
H          3.23372       -2.05854       -1.16330
H          4.23587       -0.61158       -1.18768
C          5.23943       -2.35930       -0.42552
H          4.95892       -3.24219        0.18025
C          5.70854       -2.85694       -1.78758
H          4.91397       -3.41581       -2.30580
H          6.58481       -3.51775       -1.69662
H          5.99509       -2.01135       -2.43522
C          6.35992       -1.62679        0.30428
H          7.25765       -2.25838        0.39387
H          6.06399       -1.32590        1.32048
H          6.64951       -0.71379       -0.24377
H          1.15311        1.82496       -0.41325
H          2.16674        0.90650       -1.49337
C          3.28102        2.04623       -0.00380
H          3.33352        2.08968        1.09729
H          4.20974        1.54247       -0.32547
C          3.28566        3.47853       -0.54620
H          2.38404        3.98082       -0.14290
C          4.50537        4.23828       -0.03933
H          4.55887        4.22732        1.06072
H          4.49245        5.28945       -0.36745
H          5.43433        3.78295       -0.42129
C          3.19653        3.52549       -2.06757
H          3.23443        4.56348       -2.43390
H          2.26433        3.07679       -2.44174
H          4.04032        2.98145       -2.52482
C         -1.44239        1.11128       -3.24210
H         -1.65995        0.10636       -3.60921
C         -1.07053        2.63817       -1.42525
O         -0.97908        2.84366       -0.08948
C         -0.81859        4.14497        0.39961
H          0.15397        4.57898        0.10803
H         -0.86041        4.07229        1.49375
H         -1.62668        4.81229        0.05339
C         -1.18847        2.11810       -4.16983
H         -1.22468        1.89673       -5.23810
C         -0.82104        3.65668       -2.35165
H         -0.56566        4.65926       -2.00908
C         -0.88053        3.39625       -3.71858
H         -0.67553        4.20149       -4.42782
H         -3.00973       -1.13815       -2.51084
H         -3.96578        0.03022       -1.57595
C         -3.78709       -1.96028       -0.67956
H         -2.95800       -2.66172       -0.48725
H         -4.12631       -1.60673        0.31123
C         -4.93769       -2.71896       -1.34443
H         -4.57398       -3.07030       -2.32864
C         -5.30632       -3.94532       -0.51769
H         -4.43743       -4.60550       -0.36970
H         -6.10059       -4.53486       -1.00149
H         -5.67276       -3.64906        0.47970
C         -6.15635       -1.83417       -1.58197
H         -6.97700       -2.40248       -2.04689
H         -5.92792       -0.98396       -2.24199
H         -6.53310       -1.42562       -0.62859
H         -1.35264        0.94637        1.32870
H         -2.37871       -0.46918        1.43343
C         -3.44684        1.36312        0.92221
H         -3.39247        2.11660        0.11971
H         -4.36147        0.77416        0.72647
C         -3.60440        2.08906        2.26103
H         -2.68953        2.69325        2.40813
C         -4.79624        3.03726        2.21998
H         -4.70997        3.75669        1.39016
H         -4.89000        3.61013        3.15591
H         -5.73686        2.47929        2.07706
C         -3.70545        1.12245        3.43553
H         -3.84510        1.66517        4.38364
H         -2.79764        0.50961        3.53891
H         -4.56568        0.44244        3.31147
