88
Cat707.ts34.5.log	Energy: -1695672.0360442
C         -1.28870       -0.69866       -3.37861
H         -1.15678       -1.66122       -3.87985
H         -2.33204       -0.38498       -3.27139
C         -0.28103        0.29375       -3.55479
H          0.62772        0.05666       -4.11550
H         -0.59033        1.33719       -3.68521
H          0.02929        0.85161       -2.03512
Rh        -0.14740       -0.69169       -1.56298
C         -1.77412       -0.78269        1.63617
C         -2.09981        1.71230        0.28662
C         -3.56616       -0.58202       -0.54708
C          2.43366       -1.62387        0.65906
C          3.16524        0.34536       -1.29221
C          1.48748        1.11914        0.89765
P          1.71778       -0.23103       -0.31968
P         -1.86237       -0.07393       -0.07070
C          0.11402       -2.55888       -1.57142
O          0.29668       -3.69891       -1.55807
H         -2.70298       -0.53223        2.17666
H         -0.94553       -0.25453        2.13271
C         -1.54062       -2.28315        1.65038
H         -2.31903       -2.78332        1.04931
H         -0.58781       -2.50398        1.13949
C         -1.52874       -2.91049        3.04701
H         -2.52448       -2.73798        3.49749
C         -1.31519       -4.41592        2.94021
H         -2.07681       -4.88534        2.29872
H         -1.35769       -4.90146        3.92741
H         -0.32934       -4.63976        2.49897
C         -0.48869       -2.27908        3.96659
H         -0.48563       -2.76614        4.95383
H         -0.67194       -1.20625        4.12996
H          0.52493       -2.38811        3.54602
C         -2.09993        2.59197       -0.80614
H         -1.97395        2.18976       -1.81465
C         -2.24622        2.24999        1.57034
H         -2.24496        1.60068        2.44654
C         -2.24558        3.96267       -0.63113
H         -2.24910        4.65319       -1.47652
C         -2.37830        3.62442        1.76588
H         -2.46443        4.05424        2.76529
C         -2.37579        4.46293        0.66097
F         -2.48885        5.77790        0.83811
C         -4.70730        0.15344       -0.20150
H         -4.60416        1.09804        0.33814
C         -3.72706       -1.78370       -1.24973
H         -2.83776       -2.34562       -1.54748
C         -5.97925       -0.29850       -0.54280
H         -6.87670        0.26764       -0.28639
C         -4.99330       -2.25503       -1.58532
H         -5.13124       -3.19027       -2.13092
C         -6.10479       -1.50167       -1.22760
F         -7.31928       -1.93788       -1.55554
H          2.49103       -2.45692       -0.06099
H          1.64789       -1.91439        1.37514
C          3.78103       -1.41176        1.33021
H          4.50720       -1.07731        0.57206
H          3.71953       -0.59147        2.06730
C          4.34392       -2.65794        2.02118
H          4.43454       -3.44780        1.25192
C          5.73923       -2.36904        2.56276
H          6.41408       -2.01499        1.76803
H          6.18980       -3.26682        3.01323
H          5.70318       -1.58853        3.34122
C          3.42965       -3.18333        3.12230
H          3.88155       -4.04734        3.63321
H          2.45419       -3.51112        2.73283
H          3.24584       -2.40744        3.88532
C          4.11350        1.25265       -0.80218
H          3.99039        1.68815        0.19208
C          3.34521       -0.19786       -2.56993
H          2.59168       -0.89327       -2.95253
C          5.21547        1.61558       -1.57173
H          5.95951        2.32676       -1.20828
C          4.44943        0.14476       -3.34484
H          4.60381       -0.27183       -4.34185
C          5.36931        1.05296       -2.83383
F          6.42125        1.39714       -3.57221
C          1.39288        0.89433        2.27490
H          1.55353       -0.10382        2.68617
C          1.26128        2.41748        0.41450
H          1.30445        2.60862       -0.66092
C          1.07666        1.93221        3.15218
H          0.98940        1.76430        4.22717
C          0.96781        3.46517        1.27662
H          0.78180        4.47548        0.90910
C          0.86655        3.20354        2.63874
F          0.53965        4.19477        3.46588
