102
Cat735.ts34.5.log	Energy: -1920851.4043974
C         -0.67435        1.03767       -3.22386
H         -0.39511        0.41136       -4.07553
H         -1.73030        1.32310       -3.18586
C          0.29643        1.93171       -2.69433
H          1.31580        1.93327       -3.09103
H         -0.03239        2.92070       -2.35791
H          0.21280        1.68615       -1.07627
Rh         0.05679        0.11923       -1.42462
C         -1.79318        1.43050        1.29272
C         -3.47293        0.64651       -0.91577
C         -2.41227       -1.28923        0.79188
C          1.73257       -1.04813        1.52672
C          3.39072       -0.87774       -0.78114
C          2.56554        1.50242        0.54791
P          1.89829       -0.10466       -0.04678
P         -1.88173        0.23173       -0.09495
C          0.18955       -1.60329       -2.17845
O          0.28305       -2.65562       -2.64395
C         -1.56656        1.01693        2.60772
H         -1.55299       -0.05170        2.83092
C         -1.75963        2.81562        1.01310
O         -1.90194        3.15607       -0.28322
C         -1.88818        4.50626       -0.65016
H         -2.70535        5.06917       -0.16634
H         -2.03457        4.53394       -1.73715
H         -0.92449        4.98496       -0.40252
C         -1.33730        1.93808        3.63103
H         -1.15294        1.58535        4.64784
C         -1.56323        3.74325        2.03963
H         -1.55562        4.81223        1.82563
C         -1.34924        3.29858        3.34593
H         -1.18235        4.03114        4.13920
C         -4.43553        1.52618       -0.40135
H         -4.24905        2.04792        0.54057
C         -3.75478       -0.00852       -2.11625
H         -3.01104       -0.69389       -2.53370
C         -5.63323        1.74264       -1.06675
H         -6.38698        2.42746       -0.67283
C         -4.95801        0.19090       -2.79243
H         -5.13938       -0.34322       -3.72546
C         -5.90633        1.07661       -2.26947
O         -7.09515        1.35006       -2.84723
C         -7.42257        0.70821       -4.04609
H         -7.45937       -0.38963       -3.92940
H         -8.41895        1.06694       -4.33472
H         -6.70881        0.95250       -4.85307
C         -1.62956       -2.44586        0.72983
H         -0.70126       -2.42042        0.15696
C         -3.60880       -1.33606        1.51571
H         -4.24749       -0.45068        1.56716
C         -2.02308       -3.60877        1.37818
H         -1.42083       -4.51790        1.33755
C         -4.01408       -2.49276        2.17525
H         -4.95316       -2.49003        2.72923
C         -3.21513       -3.64270        2.10937
O         -3.51686       -4.81238        2.70935
C         -4.70120       -4.90604        3.44833
H         -5.59305       -4.72571        2.82226
H         -4.74703       -5.92935        3.84253
H         -4.71560       -4.19741        4.29553
C          1.67716       -0.44482        2.78328
H          1.79796        0.63688        2.86251
C          1.58145       -2.44916        1.44713
O          1.61079       -2.96388        0.20322
C          1.62015       -4.35000        0.00705
H          2.49833       -4.81679        0.48526
H          1.66547       -4.50371       -1.07763
H          0.70267       -4.82506        0.39433
C          1.47509       -1.20017        3.93987
H          1.43140       -0.70437        4.91192
C          1.40571       -3.21257        2.60219
H          1.29812       -4.29557        2.53802
C          1.34488       -2.58121        3.84486
H          1.19383       -3.18434        4.74334
C          4.40827       -1.44462        0.00214
H          4.31107       -1.45644        1.09114
C          3.54015       -0.88203       -2.16598
H          2.73849       -0.45907       -2.77881
C          5.53356       -1.99866       -0.58655
H          6.32759       -2.44889        0.01255
C          4.67048       -1.42981       -2.77412
H          4.74841       -1.41906       -3.86151
C          5.67518       -1.99569       -1.98305
O          6.80009       -2.55949       -2.46738
C          6.99376       -2.59224       -3.85295
H          7.03235       -1.57741       -4.28725
H          7.95759       -3.08809       -4.02518
H          6.20110       -3.16533       -4.36585
C          1.67755        2.44179        1.09779
H          0.61696        2.19881        1.17468
C          3.91179        1.85595        0.45018
H          4.62957        1.15648        0.01783
C          2.11978        3.67355        1.54903
H          1.42558        4.39293        1.98726
C          4.37016        3.10202        0.88461
H          5.42872        3.34134        0.77965
C          3.47494        4.01907        1.44247
O          3.81721        5.24287        1.89423
C          5.15683        5.63872        1.81407
H          5.51649        5.66605        0.77005
H          5.21286        6.65101        2.23444
H          5.81820        4.97356        2.39730
