86
Cat763.ts34.5.log	Energy: -1633613.6353826
C         -0.52753       -3.96583       -0.47439
H         -0.07351       -4.68927        0.20733
H         -1.62132       -3.98055       -0.50388
C          0.19361       -3.59889       -1.64164
H          1.20301       -3.98836       -1.80267
H         -0.36539       -3.43657       -2.56983
H          0.21997       -1.96417       -1.66607
Rh         0.32118       -2.02804       -0.04480
O         -1.93075        0.24003       -1.18393
C         -3.17839       -1.85050       -0.00460
C         -1.97262        0.21287        1.56226
O          2.20509        0.37109        1.20432
C          3.71377       -1.35121       -0.21698
C          2.16517        0.65022       -1.52957
P          2.05475       -0.58420       -0.18987
P         -1.65533       -0.84391        0.10281
C          0.85193       -2.56087        1.69488
O          1.16575       -2.87186        2.75638
C         -2.69945        1.36763       -1.10423
C         -4.07108        1.31580       -1.34999
H         -4.53041        0.35424       -1.58624
C         -2.08539        2.58365       -0.79691
H         -1.00995        2.60613       -0.61872
C         -4.85448        2.47322       -1.27295
C         -6.32735        2.40764       -1.55818
H         -6.51778        2.39843       -2.64433
H         -6.77723        1.49333       -1.14329
H         -6.85847        3.27342       -1.13792
C         -2.85870        3.73645       -0.71814
H         -2.38304        4.68810       -0.46803
C         -4.23301        3.68359       -0.94719
H         -4.83288        4.59448       -0.87461
C         -3.70991       -2.47005        1.13369
C         -3.70202       -2.17544       -1.26298
C         -5.29602       -3.67461       -0.23749
C         -4.75903       -3.07621       -1.37711
C         -4.76497       -3.37230        1.01647
H         -3.29523       -2.24332        2.11956
H         -5.17641       -3.84254        1.91297
H         -6.12378       -4.38201       -0.32690
H         -5.16362       -3.31534       -2.36379
H         -3.27370       -1.71182       -2.15542
C         -3.24833        0.69682        1.89066
C         -0.87030        0.61609        2.32353
C         -2.30213        1.99223        3.69625
C         -1.03449        1.50558        3.38493
C         -3.40938        1.58284        2.95105
H         -4.11830        0.38337        1.31085
H         -4.40524        1.96041        3.19479
H         -2.43168        2.69093        4.52670
H         -0.16373        1.81807        3.96592
H          0.12342        0.23735        2.07145
C          2.61487        1.67568        1.19979
C          1.68638        2.67147        0.90444
H          0.65909        2.37478        0.68773
C          3.93591        2.00713        1.50224
H          4.65143        1.21628        1.73212
C          2.05950        4.01681        0.87372
C          1.04916        5.06292        0.50171
H          0.81013        5.00602       -0.57333
H          0.10662        4.91831        1.05221
H          1.41774        6.07697        0.71022
C          4.31092        3.34856        1.48748
H          5.34250        3.62145        1.72332
C          3.38752        4.34411        1.16993
H          3.70060        5.39128        1.15463
C          4.40497       -1.58631        0.97688
C          4.24136       -1.83223       -1.42215
C          6.14211       -2.74447       -0.24157
C          5.45121       -2.52129       -1.43310
C          5.61505       -2.27722        0.96163
H          3.98417       -1.22989        1.91974
H          6.14863       -2.45395        1.89877
H          7.09102       -3.28590       -0.25146
H          5.85874       -2.88583       -2.37924
H          3.70402       -1.66037       -2.35909
C          0.99672        1.00645       -2.21007
C          3.35864        1.33681       -1.79915
C          2.20056        2.73710       -3.38928
C          3.37319        2.37648       -2.72305
C          1.01577        2.04864       -3.13684
H          0.06308        0.48045       -1.99692
H          0.09469        2.32458       -3.65571
H          2.21411        3.55750       -4.11136
H          4.30412        2.91311       -2.92002
H          4.27690        1.06383       -1.27557
