120
Cat712.ts34.5.log	Energy: -2021209.8287387
C          0.65329       -3.04535       -1.36117
H          0.08559       -3.33407       -2.24864
H          1.73413       -3.19795       -1.42557
C          0.02542       -3.09852       -0.09612
H         -1.02398       -3.40158       -0.01999
H          0.63961       -3.38020        0.76791
H          0.01553       -1.64043        0.62269
Rh         0.08245       -1.00334       -0.87272
C          1.94520        1.12514        1.56197
C          2.97616       -1.42574        0.57100
C          3.16210        1.05224       -0.94712
C         -2.62222        1.20421       -1.45034
C         -3.43866       -1.26566       -0.37131
C         -1.96889        0.55250        1.41272
P         -1.98756       -0.10351       -0.31291
P          1.97257        0.03423        0.04821
C          0.04409       -0.50211       -2.66616
O          0.00244       -0.23117       -3.79082
H          2.92825        1.00791        2.04583
H          1.18563        0.71686        2.23908
C          1.68092        2.59757        1.26757
H          2.11938        2.88086        0.29905
H          0.59719        2.76819        1.16712
C          2.27576        3.53460        2.32373
H          3.36589        3.34301        2.33194
C          2.07156        4.99275        1.93065
H          2.47412        5.19631        0.92597
H          2.56475        5.67680        2.63929
H          0.99942        5.25209        1.91609
C          1.74954        3.26516        3.72821
H          2.22282        3.93261        4.46601
H          1.93963        2.22785        4.04207
H          0.66060        3.42298        3.77578
C          3.76240       -2.11733       -0.37400
O          3.80569       -1.57163       -1.60463
C          4.52070       -2.19488       -2.62787
H          4.38218       -1.57443       -3.52227
H          5.59990       -2.25618       -2.39926
H          4.14145       -3.21186       -2.83253
C          2.82965       -2.02211        1.83566
O          1.96159       -1.42304        2.68582
C          1.88598       -1.84137        4.01394
H          1.17650       -1.16546        4.51024
H          2.86385       -1.77526        4.52334
H          1.51340       -2.87793        4.10471
C          3.51844       -3.19322        2.18172
H          3.41011       -3.62800        3.17476
C          4.45012       -3.28986       -0.04381
H          5.06924       -3.79664       -0.78327
C          4.33335       -3.81096        1.24093
H          4.87126       -4.72393        1.50636
C          4.54646        1.07478       -0.69068
O          4.95981        0.43210        0.41949
C          6.31757        0.17175        0.61485
H          6.38467       -0.47448        1.49974
H          6.75903       -0.35894       -0.24678
H          6.89566        1.09495        0.79914
C          2.68499        1.85983       -1.99764
O          1.34992        1.98241       -2.09939
C          0.79385        2.73965       -3.13449
H         -0.29456        2.66863       -3.01560
H          1.06147        2.33650       -4.12533
H          1.09777        3.79977       -3.07323
C          3.56743        2.53545       -2.85408
H          3.18951        3.13171       -3.68333
C          5.43703        1.74469       -1.53845
H          6.50901        1.73238       -1.34384
C          4.93467        2.45334       -2.62426
H          5.62423        2.97778       -3.29040
H         -2.54999        0.70254       -2.43035
H         -1.87341        2.00555       -1.43684
C         -4.03593        1.71177       -1.22566
H         -4.71576        0.84613       -1.16627
H         -4.10112        2.22013       -0.24944
C         -4.54497        2.64986       -2.32398
H         -4.41802        2.12420       -3.28956
C         -6.03145        2.93123       -2.13699
H         -6.61826        1.99951       -2.13432
H         -6.42651        3.57850       -2.93598
H         -6.21343        3.44021       -1.17532
C         -3.75598        3.95246       -2.39676
H         -4.11165        4.58999       -3.22140
H         -2.68082        3.77710       -2.55299
H         -3.87002        4.52641       -1.46178
C         -4.44803       -1.38341        0.60543
O         -4.49817       -0.41827        1.54217
C         -5.33945       -0.55017        2.64757
H         -5.11389        0.29663        3.30887
H         -6.40629       -0.51221        2.36342
H         -5.15328       -1.49027        3.19676
C         -3.51126       -2.14251       -1.47462
O         -2.67148       -1.87759       -2.48960
C         -2.51278       -2.79036       -3.53686
H         -1.70537       -2.39554       -4.16618
H         -3.43114       -2.88163       -4.14343
H         -2.22763       -3.79012       -3.16637
C         -4.42806       -3.20171       -1.51428
H         -4.44843       -3.88823       -2.35981
C         -5.37045       -2.43811        0.57700
H         -6.12892       -2.53352        1.35332
C         -5.33654       -3.34828       -0.47358
H         -6.05630       -4.17009       -0.49770
C         -1.86118       -0.38446        2.46265
O         -1.92395       -1.67744        2.08996
C         -1.84689       -2.69179        3.04507
H         -1.93288       -3.63932        2.49851
H         -0.88458       -2.67509        3.58388
H         -2.66906       -2.62765        3.77981
C         -1.90444        1.91186        1.76139
O         -1.93000        2.81075        0.75122
C         -1.96713        4.17817        1.03960
H         -2.00669        4.69769        0.07406
H         -1.06504        4.50875        1.58169
H         -2.86096        4.44801        1.62916
C         -1.80129        2.31666        3.10050
H         -1.77670        3.37466        3.35623
C         -1.72765        0.00692        3.79718
H         -1.65530       -0.73563        4.59118
C         -1.70981        1.36377        4.10542
H         -1.61551        1.68349        5.14572
