108
Cat721.ts34.5.log	Energy: -1360186.9397470
C          0.84755       -2.90943       -2.23412
H          0.93458       -2.79612       -3.31793
H          1.73701       -3.34452       -1.76350
C         -0.43497       -3.23138       -1.69034
H         -1.30361       -3.28064       -2.35328
H         -0.48678       -3.96080       -0.87409
H         -0.60185       -2.18653       -0.41895
Rh         0.10788       -1.09085       -1.39026
C          2.13746       -2.30410        1.26771
C          3.57009       -0.88167       -0.75337
C          2.03595        0.58684        1.18006
C         -0.84669        2.16598       -0.49450
C         -3.03603        0.48861       -1.43348
C         -1.91213        0.02836        1.18880
P         -1.41742        0.40283       -0.55018
P          1.92036       -0.90036        0.08113
C          0.33920       -0.06563       -2.95391
O          0.47568        0.61447       -3.88011
H          3.12577       -2.26288        1.75707
H          2.13552       -3.20730        0.63520
C          1.01863       -2.36640        2.29744
H          1.14636       -1.53984        3.01833
H          0.05550       -2.18115        1.78771
C          0.90646       -3.68007        3.07525
H          1.90057       -3.90830        3.50420
C         -0.07939       -3.52254        4.22779
H          0.22937       -2.72040        4.91641
H         -0.17284       -4.45124        4.81176
H         -1.08327       -3.26577        3.84862
C          0.50033       -4.84215        2.17527
H          0.43982       -5.78382        2.74231
H          1.21119       -5.00038        1.35043
H         -0.49140       -4.65662        1.72888
H          3.59139       -1.78837       -1.38142
H          4.37251       -0.98799       -0.00457
C          3.76532        0.35300       -1.62155
H          2.83776        0.52735       -2.19140
H          3.90337        1.24398       -0.98081
C          4.93410        0.27525       -2.60533
H          4.77510       -0.62486       -3.22889
C          4.92467        1.48834       -3.52806
H          3.96536        1.57525       -4.06151
H          5.72797        1.43106       -4.27908
H          5.07277        2.41840       -2.95347
C          6.27794        0.12904       -1.90076
H          7.10579        0.08125       -2.62536
H          6.32501       -0.78189       -1.28489
H          6.46618        0.99125       -1.23806
H          1.10348        0.60961        1.76927
H          1.97049        1.44501        0.49317
C          3.24057        0.70696        2.09935
H          3.31842       -0.19800        2.72586
H          4.16863        0.74088        1.50081
C          3.21271        1.93038        3.02163
H          2.27664        1.87822        3.61032
C          4.38243        1.88688        3.99795
H          4.37937        0.95820        4.58988
H          4.35376        2.73448        4.70012
H          5.34339        1.93449        3.45880
C          3.20336        3.24163        2.24349
H          3.20349        4.10737        2.92357
H          2.31942        3.33437        1.59495
H          4.09724        3.32172        1.60187
H         -0.10692        2.26122       -1.30546
H         -0.27049        2.24098        0.44152
C         -1.87230        3.28708       -0.60038
H         -2.35904        3.23534       -1.58797
H         -2.67947        3.15446        0.14021
C         -1.28009        4.68935       -0.42391
H         -0.43896        4.78645       -1.13604
C         -2.31737        5.75005       -0.77434
H         -2.68802        5.62656       -1.80378
H         -1.90148        6.76559       -0.68529
H         -3.18598        5.68631       -0.09745
C         -0.73396        4.91272        0.98258
H         -0.31861        5.92641        1.09104
H          0.06788        4.20375        1.23800
H         -1.53355        4.79919        1.73450
H         -2.79845        0.83266       -2.45475
H         -3.67775        1.25500       -0.97169
C         -3.73104       -0.86341       -1.48874
H         -2.99158       -1.61416       -1.81504
H         -4.04562       -1.16491       -0.47199
C         -4.94965       -0.92299       -2.41179
H         -4.61062       -0.62353       -3.42152
C         -5.47408       -2.35153       -2.49909
H         -4.69085       -3.04617       -2.84042
H         -6.32207       -2.42857       -3.19723
H         -5.82249       -2.70176       -1.51279
C         -6.05307        0.03760       -1.98214
H         -6.92639       -0.03469       -2.64892
H         -5.71740        1.08558       -1.99183
H         -6.39597       -0.19507       -0.95928
H         -0.96719       -0.02768        1.75341
H         -2.28075       -1.00861        1.14664
C         -2.89967        0.93983        1.89709
H         -2.49529        1.96498        1.92933
H         -3.84273        1.00031        1.32370
C         -3.22771        0.51190        3.33191
H         -2.27120        0.46093        3.88647
C         -4.10588        1.55919        4.00688
H         -3.62992        2.55236        3.99586
H         -4.31338        1.29650        5.05572
H         -5.07542        1.64923        3.48887
C         -3.87731       -0.86613        3.39555
H         -4.13093       -1.13605        4.43224
H         -3.21853       -1.65574        3.00407
H         -4.81113       -0.88625        2.80823
