112
Cat724.ts34.5.log	Energy: -1643907.9112035
C         -1.03961       -3.20550       -2.65066
H         -0.76894       -4.26249       -2.58365
H         -2.12032       -3.02179       -2.65247
C         -0.20265       -2.34344       -3.42338
H          0.71590       -2.73945       -3.86549
H         -0.68176       -1.58374       -4.05277
H          0.02727       -1.05739       -2.46124
Rh         0.12762       -2.11065       -1.23041
C         -2.82497       -0.13176       -1.44289
C         -2.92103       -2.36005        0.39163
C         -1.58876        0.11286        1.19770
C          2.11150       -0.09581        0.91456
C          3.58242       -2.10574       -0.55264
C          2.62659        0.29270       -1.93021
P          2.06927       -1.00482       -0.68800
P         -1.74428       -1.06162       -0.27306
C          0.53802       -3.59884       -0.15248
O          0.78802       -4.47809        0.55360
H         -3.68585        0.28223       -0.89520
H         -3.22327       -0.87362       -2.15468
C         -2.07671        0.98478       -2.16837
H         -1.29670        1.39524       -1.50904
H         -1.53757        0.56851       -3.03751
C         -2.96998        2.14025       -2.62006
H         -3.47270        2.52677       -1.71432
C         -2.12745        3.27039       -3.19697
H         -1.40009        3.63808       -2.45637
H         -2.75245        4.12395       -3.50270
H         -1.56485        2.93440       -4.08455
C         -4.04149        1.68599       -3.60392
H         -4.68529        2.52563       -3.90943
H         -4.69261        0.91100       -3.17087
H         -3.58500        1.26729       -4.51716
H         -3.13572       -3.00271       -0.47630
H         -2.31290       -2.96509        1.08126
C         -4.17246       -1.87781        1.05006
C         -4.24704       -1.75331        2.44373
H         -3.40565       -2.08089        3.06053
C         -5.28600       -1.49092        0.29120
H         -5.25528       -1.61323       -0.79490
C         -5.38706       -1.22735        3.04774
H         -5.43232       -1.13696        4.13570
C         -6.43285       -0.94975        0.87759
C         -7.58239       -0.48607        0.03095
H         -7.50863        0.59694       -0.16495
H         -7.59802       -0.99514       -0.94325
H         -8.54806       -0.66201        0.52712
C         -6.46866       -0.81818        2.27222
H         -7.35894       -0.40348        2.75298
H         -1.99755       -0.43268        2.06159
H         -0.51354        0.22257        1.36980
C         -2.22057        1.46810        1.09832
C         -1.43269        2.59626        0.83894
H         -0.34997        2.48990        0.73040
C         -3.60220        1.64210        1.24800
H         -4.22736        0.77515        1.47133
C         -2.01924        3.85365        0.71525
H         -1.39116        4.72633        0.51841
C         -4.20751        2.89525        1.11966
C         -5.69808        3.03415        1.23802
H         -6.13259        2.19427        1.79882
H         -5.98065        3.97177        1.73929
H         -6.17021        3.04442        0.24077
C         -3.39735        4.00468        0.84804
H         -3.85054        4.99485        0.74768
H          1.40795        0.74389        0.79004
H          3.10019        0.36355        1.05405
C          1.70909       -0.95552        2.10158
H          0.77118       -1.48285        1.85787
H          2.45320       -1.75608        2.26762
C          1.52908       -0.17353        3.40529
H          0.80615        0.63996        3.20473
C          0.93216       -1.07015        4.48290
H         -0.03183       -1.49411        4.16024
H          0.76184       -0.51730        5.41967
H          1.60528       -1.91374        4.70985
C          2.82767        0.47020        3.87981
H          2.67212        1.03971        4.80910
H          3.24163        1.16358        3.13190
H          3.59258       -0.29766        4.08672
H          3.34531       -2.82098        0.25046
H          3.59757       -2.68281       -1.48904
C          4.88069       -1.40298       -0.31582
C          5.73197       -1.08695       -1.38433
H          5.48606       -1.43501       -2.39131
C          5.25223       -0.98521        0.96861
H          4.62098       -1.25753        1.81824
C          6.89076       -0.34477       -1.17104
H          7.54607       -0.10744       -2.01253
C          6.40265       -0.22531        1.20078
C          6.72658        0.26115        2.58351
H          6.17003        1.18584        2.81149
H          6.44773       -0.47947        3.34726
H          7.79711        0.48464        2.69466
C          7.21876        0.09578        0.10948
H          8.12712        0.68324        0.26852
H          3.60317       -0.02957       -2.31825
H          1.90405        0.24443       -2.75434
C          2.72430        1.68427       -1.38597
C          1.64367        2.56587       -1.47954
H          0.73884        2.25651       -2.00828
C          3.88034        2.10725       -0.71675
H          4.73333        1.42676       -0.64638
C          1.71896        3.83301       -0.90168
H          0.87062        4.51728       -0.98718
C          3.96672        3.36669       -0.12058
C          5.20407        3.77582        0.62594
H          6.01495        3.04800        0.48064
H          5.56493        4.76361        0.30006
H          5.00637        3.84638        1.70846
C          2.86576        4.22897       -0.21981
H          2.91343        5.22179        0.23636
