90
Cat794.ts34.5.log	Energy: -1837526.7861257
C         -1.97840       -2.05494       -2.91192
H         -1.93025       -3.14446       -2.98979
H         -2.99648       -1.65071       -2.93420
C         -0.92192       -1.29253       -3.49524
H         -0.05935       -1.80861       -3.92680
H         -1.17955       -0.37528       -4.03836
H         -0.53255       -0.20874       -2.33721
Rh        -0.74214       -1.42378       -1.28045
C         -3.37141        1.09916       -1.20018
C         -3.83889       -1.11783        0.43566
C         -1.86994        0.77237        1.29893
C          1.29991       -1.01277        1.47231
C          2.77458       -1.71992       -0.93410
C          1.83010        0.91262       -0.76834
P          1.28660       -0.79183       -0.37753
P         -2.39247       -0.16178       -0.19478
C         -0.65951       -3.11769       -0.46127
O         -0.60297       -4.13779        0.07717
H         -3.57690        0.56860       -2.14366
H         -4.33580        1.24887       -0.69562
C         -2.72296        2.42131       -1.45426
C         -3.00940        3.50751       -0.61927
H         -3.72215        3.38356        0.19989
C         -1.80696        2.60264       -2.49768
H         -1.58606        1.76289       -3.16176
C         -2.37433        4.73126       -0.81117
H         -2.59548        5.56875       -0.14503
C         -1.17962        3.83215       -2.72134
C         -0.26853        4.04010       -3.89516
H          0.04047        3.08463       -4.34037
H         -0.77647        4.62478       -4.68001
H          0.63529        4.59675       -3.60741
C         -1.46134        4.89166       -1.84946
H         -0.97011        5.85691       -2.00021
C         -3.96133       -2.47717        0.13683
H         -3.17675       -2.96055       -0.44734
C         -4.86115       -0.50188        1.17566
H         -4.79092        0.55977        1.42838
C         -5.06387       -3.21436        0.56564
H         -5.16552       -4.27660        0.33674
C         -5.96466       -1.22236        1.61705
H         -6.76103       -0.75522        2.19931
C         -6.05066       -2.57593        1.30313
F         -7.10568       -3.26950        1.72113
C         -1.03045        1.88766        1.14627
H         -0.75158        2.23414        0.15088
C         -2.12588        0.30879        2.59853
H         -2.74324       -0.57885        2.74917
C         -0.51062        2.55253        2.25249
H          0.13144        3.42730        2.13525
C         -1.58549        0.94693        3.71317
H         -1.76733        0.58010        4.72487
C         -0.79309        2.07130        3.52403
F         -0.25462        2.67943        4.58427
H          0.43558       -0.43118        1.82621
H          1.00660       -2.07104        1.56605
C          2.51459       -0.72874        2.30370
C          3.64679       -1.54984        2.26280
H          3.66174       -2.42617        1.61220
C          2.51127        0.35309        3.19356
H          1.61082        0.96760        3.27334
C          4.75100       -1.25882        3.06201
H          5.63075       -1.90596        3.02131
C          3.60689        0.65976        4.00285
C          3.56350        1.83833        4.93246
H          2.54626        2.24801        5.00972
H          3.90022        1.56482        5.94416
H          4.22603        2.64604        4.57993
C          4.73861       -0.16058        3.91765
H          5.61074        0.05384        4.54173
C          4.05864       -1.16278       -0.84295
H          4.18762       -0.14797       -0.46107
C          2.63719       -3.01861       -1.43524
H          1.63671       -3.44473       -1.54001
C          5.18025       -1.88880       -1.22896
H          6.18515       -1.46797       -1.16317
C          3.75206       -3.76195       -1.81501
H          3.65832       -4.77658       -2.20612
C          5.01097       -3.18440       -1.70527
F          6.08114       -3.88333       -2.07503
C          2.08549        1.91265        0.17110
H          2.00816        1.69862        1.23481
C          1.98470        1.21388       -2.13041
H          1.79807        0.43851       -2.87847
C          2.44399        3.20002       -0.23250
H          2.62917        3.99388        0.49344
C          2.37499        2.47867       -2.54524
H          2.51169        2.71826       -3.60039
C          2.57637        3.46644       -1.58625
F          2.89983        4.69638       -1.98707
