90
Cat742.ts34.5.log	Energy: -1822324.9862200
C         -1.17285        2.05703       -2.76299
H         -1.19277        1.64987       -3.77677
H         -2.13430        2.44485       -2.41248
C          0.02644        2.66403       -2.29516
H          0.91980        2.64051       -2.92547
H         -0.04626        3.55830       -1.66541
H          0.22404        2.00756       -0.80293
Rh        -0.24355        0.60908       -1.46523
C         -3.66362       -0.07770       -0.69385
O         -1.83367       -0.47179        1.28523
O         -2.61701        1.90360        0.60293
C          1.46867       -1.89029        0.41242
O          2.84418       -0.35133       -1.40407
O          2.13370        0.57186        0.91877
P          1.52972       -0.25480       -0.38664
P         -2.03535        0.47191       -0.06720
C         -0.38051       -0.79183       -2.74685
O         -0.49292       -1.65538       -3.49902
C         -4.74718        0.79635       -0.80536
H         -4.64076        1.80737       -0.41102
C         -3.79497       -1.38711       -1.19937
O         -2.72016       -2.19130       -1.07399
C         -2.73239       -3.44860       -1.69665
H         -3.46891       -4.12385       -1.22873
H         -1.72728       -3.86896       -1.57349
H         -2.94301       -3.36125       -2.77514
C         -5.94430        0.39357       -1.39384
H         -6.78063        1.09164       -1.46613
C         -4.99432       -1.79485       -1.78958
H         -5.10480       -2.80792       -2.17539
C         -6.06155       -0.90307       -1.88254
H         -6.99411       -1.23520       -2.34512
C         -2.82499       -1.01413        2.05742
C         -3.91536       -0.26607        2.50548
H         -3.99193        0.78722        2.23466
C         -2.69506       -2.35813        2.40957
H         -1.82438       -2.90817        2.05045
C         -4.88437       -0.88092        3.29622
H         -5.73969       -0.29599        3.64311
C         -3.66668       -2.95759        3.20588
H         -3.56162       -4.00984        3.48208
C         -4.76825       -2.22455        3.64836
H         -5.53141       -2.69830        4.26978
C         -1.85044        3.02479        0.73514
C         -2.29556        4.19958        0.12639
H         -3.23009        4.18116       -0.43800
C         -0.65787        3.01187        1.46048
H         -0.32392        2.08550        1.93193
C         -1.54111        5.36499        0.23974
H         -1.89137        6.28249       -0.23932
C          0.09545        4.18034        1.55716
H          1.03990        4.16371        2.10382
C         -0.33914        5.35655        0.94773
H          0.26134        6.26544        1.02526
C          0.34431       -2.66984        0.13605
H         -0.45391       -2.22785       -0.46415
C          2.47619       -2.41569        1.25811
O          3.52369       -1.63339        1.53726
C          4.61371       -2.14969        2.24949
H          4.33258       -2.42648        3.28038
H          5.36314       -1.34986        2.28229
H          5.05114       -3.02367        1.73851
C          0.21514       -3.96413        0.63704
H         -0.67194       -4.55826        0.40960
C          2.34380       -3.71707        1.75839
H          3.11690       -4.13752        2.40098
C          1.22307       -4.48161        1.44358
H          1.14003       -5.49413        1.84659
C          4.03751       -0.99492       -1.22330
C          4.14252       -2.35114       -1.53049
H          3.25757       -2.88793       -1.87678
C          5.15170       -0.27304       -0.79511
H          5.04018        0.78792       -0.56401
C          5.37221       -2.99151       -1.38848
H          5.45538       -4.05445       -1.62810
C          6.37685       -0.92153       -0.66487
H          7.25150       -0.35631       -0.33324
C          6.49223       -2.28193       -0.95545
H          7.45596       -2.78588       -0.85295
C          2.68913        1.80540        0.95982
C          2.91909        2.59866       -0.16853
H          2.65556        2.22925       -1.15942
C          3.06062        2.26576        2.22790
H          2.87910        1.61613        3.08591
C          3.49593        3.85867       -0.01094
H          3.66507        4.47747       -0.89553
C          3.64674        3.51934        2.36707
H          3.93578        3.86969        3.36107
C          3.86137        4.32803        1.24884
H          4.31672        5.31429        1.35973
