88
Cat708.ts34.5.log	Energy: -2599984.3929131
C         -1.19023       -1.67839       -3.07760
H         -1.10169       -2.74332       -3.30815
H         -2.21474       -1.29377       -3.10569
C         -0.11663       -0.81898       -3.45001
H          0.79502       -1.23942       -3.88409
H         -0.35425        0.17069       -3.85674
H          0.17684        0.09434       -2.10881
Rh        -0.11620       -1.26259       -1.26770
C         -1.85445       -0.44646        1.76416
C         -1.94962        1.63729       -0.18589
C         -3.55355       -0.69816       -0.48941
C          2.32753       -1.73952        1.23291
C          3.24701       -0.37515       -1.11206
C          1.56093        1.02441        0.73055
P          1.73346       -0.60281       -0.09553
P         -1.83510       -0.19181       -0.06836
C          0.01681       -3.08136       -0.78493
O          0.11910       -4.18788       -0.47263
H         -2.77808       -0.00752        2.17856
H         -1.00440        0.13790        2.14955
C         -1.73129       -1.90450        2.17045
H         -2.52957       -2.49160        1.68531
H         -0.78481       -2.31049        1.77425
C         -1.79851       -2.14923        3.68051
H         -2.78852       -1.80049        4.03033
C         -1.69583       -3.64194        3.97124
H         -2.47617       -4.20930        3.44106
H         -1.79642       -3.85197        5.04725
H         -0.71993       -4.03721        3.64253
C         -0.73520       -1.37248        4.45000
H         -0.79149       -1.58708        5.52824
H         -0.84075       -0.28402        4.32597
H          0.27677       -1.65410        4.11398
C         -2.08882        2.49229        0.91236
H         -2.17992        2.09017        1.92202
C         -1.83489        2.20878       -1.46153
H         -1.71875        1.55642       -2.33085
C         -2.08957        3.87696        0.75223
H         -2.16246        4.53932        1.61563
C         -1.84402        3.58598       -1.64038
H         -1.74712        4.02519       -2.63463
C         -1.95577        4.41584       -0.52318
Cl        -1.89113        6.13435       -0.72587
C         -3.77878       -2.02901       -0.86382
H         -2.92536       -2.70637       -0.95538
C         -4.64727        0.17297       -0.41414
H         -4.49476        1.21812       -0.13359
C         -5.06319       -2.49024       -1.13715
H         -5.23717       -3.52813       -1.42555
C         -5.93552       -0.27101       -0.69899
H         -6.78726        0.40920       -0.64635
C         -6.13633       -1.60424       -1.05477
Cl        -7.73697       -2.16285       -1.40843
H          2.34755       -2.73016        0.74926
H          1.50421       -1.79115        1.96378
C          3.66786       -1.44325        1.88634
H          4.43499       -1.35537        1.10039
H          3.64266       -0.46082        2.39039
C          4.12659       -2.50438        2.89161
H          4.18363       -3.46742        2.35021
C          5.52370       -2.17001        3.40145
H          6.24139       -2.06983        2.57248
H          5.90053       -2.94894        4.08199
H          5.52037       -1.21672        3.95617
C          3.15041       -2.67849        4.04975
H          3.52935       -3.40997        4.77984
H          2.16537       -3.03627        3.71449
H          2.99992       -1.72523        4.58518
C          3.43549       -1.24039       -2.19554
H          2.65340       -1.97109       -2.42435
C          4.23430        0.57588       -0.82664
H          4.10826        1.26084        0.01503
C          4.58518       -1.17060       -2.97646
H          4.73413       -1.84681       -3.81983
C          5.38249        0.66683       -1.60827
H          6.15018        1.41162       -1.39219
C          5.55203       -0.21084       -2.67884
Cl         6.97834       -0.10244       -3.65335
C          1.42648        1.16337        2.11560
H          1.50386        0.29412        2.77116
C          1.43781        2.16986       -0.07036
H          1.51037        2.08021       -1.15744
C          1.18178        2.40944        2.69213
H          1.07154        2.51232        3.77290
C          1.21241        3.42010        0.49011
H          1.10884        4.30703       -0.13654
C          1.08038        3.53099        1.87473
Cl         0.75429        5.07869        2.57891
