100
Cat73.ts34.5.log	Energy: -1545302.1878523
C          1.69046        0.80459        3.25153
H          1.55455        0.20894        4.15841
H          2.73251        0.91372        2.93414
C          0.78146        1.87957        3.01140
H         -0.07327        2.02987        3.67766
H          1.18351        2.82310        2.62399
H          0.39512        1.70506        1.43063
Rh         0.34865        0.11287        1.73776
C          2.20874        0.95567       -1.24256
C          3.54408       -0.94258        0.48850
C          1.30956       -1.76613       -1.03990
C         -2.22361       -1.46860       -0.05776
C         -3.03528        0.95360        1.28939
C         -1.41431        1.13975       -1.05650
P         -1.57923        0.16703        0.49111
P          1.86460       -0.35508        0.00525
C         -0.08772       -1.49726        2.61672
O         -0.36317       -2.51108        3.09994
H          2.89423        0.59386       -2.02697
H          1.24167        1.15475       -1.73144
C          2.72667        2.23826       -0.61178
H          2.01221        2.55469        0.16763
H          3.68090        2.04721       -0.08941
C          2.90581        3.36188       -1.62210
H          1.96526        3.48583       -2.18789
H          3.66715        3.07166       -2.36915
C          3.29552        4.69088       -0.99141
H          2.53596        4.96618       -0.23757
H          4.23734        4.56511       -0.42861
C          3.44529        5.81762       -2.00053
H          3.72632        6.76538       -1.51673
H          2.50362        5.98939       -2.54699
H          4.21961        5.58358       -2.74883
C          3.69887       -1.54299        1.74087
H          2.83787       -1.60064        2.41144
C          4.65406       -0.84855       -0.36008
H          4.54971       -0.39269       -1.34810
C          4.94015       -2.04931        2.12437
H          5.05395       -2.52389        3.10223
C          5.90811       -1.33580        0.01602
C          7.09419       -1.21148       -0.89655
H          6.80383       -0.82700       -1.88443
H          7.84752       -0.52440       -0.47786
H          7.59024       -2.18350       -1.04346
C          6.03472       -1.94310        1.27278
H          7.00707       -2.33526        1.58482
C          1.08233       -1.67333       -2.41631
H          1.30778       -0.75446       -2.95848
C          1.00152       -2.96702       -0.38566
H          1.15655       -3.03804        0.69420
C          0.53004       -2.75489       -3.10548
H          0.33955       -2.67057       -4.17874
C          0.45701       -4.05901       -1.06145
C          0.13308       -5.32804       -0.32832
H          0.96205       -6.05122       -0.40498
H         -0.04030       -5.13634        0.74031
H         -0.76349       -5.81325       -0.74181
C          0.21300       -3.93303       -2.43710
H         -0.23286       -4.76798       -2.98488
H         -1.43463       -1.88815       -0.70424
H         -2.20572       -2.09228        0.85079
C         -3.58818       -1.54056       -0.72404
H         -4.36713       -1.23854       -0.00437
H         -3.65231       -0.81569       -1.55347
C         -3.88835       -2.93649       -1.25459
H         -3.81516       -3.66439       -0.42598
H         -3.10053       -3.22820       -1.97359
C         -5.25260       -3.05839       -1.91793
H         -6.03418       -2.76780       -1.19378
H         -5.32119       -2.32369       -2.74003
C         -5.54072       -4.45224       -2.45176
H         -6.53189       -4.51102       -2.92663
H         -5.51367       -5.20190       -1.64451
H         -4.79317       -4.75386       -3.20333
C         -3.12503        0.91665        2.68263
H         -2.30340        0.47117        3.25181
C         -4.06363        1.55194        0.54970
H         -3.98893        1.59570       -0.54041
C         -4.24062        1.45837        3.32022
H         -4.31184        1.42837        4.41035
C         -5.18221        2.10700        1.17584
C         -6.28096        2.74591        0.37617
H         -6.04187        2.75850       -0.69638
H         -7.23214        2.20417        0.50265
H         -6.45678        3.78495        0.69656
C         -5.25654        2.04842        2.57458
H         -6.12314        2.47989        3.08413
C         -1.39460        0.55652       -2.32701
H         -1.55667       -0.51453       -2.45018
C         -1.17535        2.51499       -0.93869
H         -1.17419        2.97050        0.05674
C         -1.12888        1.34269       -3.44853
H         -1.10120        0.87949       -4.43804
C         -0.91951        3.31707       -2.05267
C         -0.68660        4.79172       -1.89355
H         -1.63796        5.32675       -1.73850
H         -0.04895        5.00514       -1.02260
H         -0.20529        5.22319       -2.78272
C         -0.89180        2.70751       -3.31474
H         -0.67773        3.31278       -4.19982
