82
Cat729.ts34.5.log	Energy: -1349862.7328476
C          1.54604       -3.07234       -1.07419
H          1.08501       -3.77080       -1.77806
H          2.52631       -2.70264       -1.39080
C          1.30933       -3.27020        0.32044
H          0.62054       -4.05781        0.64048
H          2.14438       -3.13637        1.01629
H          0.98600       -1.75585        0.85915
Rh         0.13481       -1.57837       -0.50283
C          2.13983        1.17136        0.49846
C          2.95779        0.00060       -2.03754
C          0.50252        1.74869       -1.80471
C         -2.66921        0.45459       -0.10183
C         -2.77344       -2.01297        1.37475
C         -0.99615        0.24638        2.34840
P         -1.54809       -0.69182        0.82974
P          1.43826        0.34332       -0.99258
C         -1.02038       -2.04941       -1.91257
O         -1.71297       -2.37967       -2.77741
C          1.68017        2.39763        0.98790
H          0.94759        2.96031        0.41152
C          3.08543        0.47595        1.28894
O          3.50711       -0.71234        0.80409
C          4.43541       -1.46719        1.52940
H          5.38789       -0.92561        1.66490
H          4.62273       -2.37651        0.94417
H          4.04326       -1.75435        2.52076
C          2.11813        2.92644        2.20324
H          1.73431        3.88912        2.54864
C          3.53601        1.00125        2.50189
H          4.26434        0.45635        3.10245
C          3.04835        2.22560        2.95974
H          3.40586        2.62495        3.91165
H          3.34562       -0.89465       -1.52934
C          2.55057       -0.40997       -3.44733
H          3.40274       -0.87574       -3.96819
H          1.72325       -1.13602       -3.42819
H          2.23423        0.45501       -4.05014
C          4.07563        1.03518       -2.02734
H          4.33791        1.34877       -1.00653
H          4.98167        0.60510       -2.48673
H          3.81880        1.93664       -2.59978
H         -0.12558        2.08415       -0.96387
C          1.33047        2.92970       -2.30114
H          0.66944        3.78226       -2.53205
H          2.07766        3.27020       -1.57041
H          1.86058        2.67733       -3.23145
C         -0.46333        1.26350       -2.88057
H         -1.10807        0.45985       -2.50495
H         -1.11039        2.09664       -3.19893
H          0.06062        0.88836       -3.77144
C         -3.56196       -0.15166       -0.99752
H         -3.60284       -1.24033       -1.05150
C         -2.62320        1.86578       -0.10571
O         -1.73050        2.47039        0.71467
C         -1.72946        3.86334        0.84067
H         -1.43737        4.36247       -0.10036
H         -0.98871        4.10315        1.61450
H         -2.71466        4.24634        1.15807
C         -4.39035        0.57753       -1.84495
H         -5.06396        0.05596       -2.52732
C         -3.45922        2.60656       -0.94961
H         -3.41650        3.69548       -0.94144
C         -4.34009        1.96604       -1.81563
H         -4.97959        2.56124       -2.47146
H         -2.96991       -2.51464        0.41207
C         -2.08900       -3.04508        2.26367
H         -2.70359       -3.95716        2.32578
H         -1.10261       -3.32020        1.86408
H         -1.95687       -2.67036        3.28960
C         -4.10421       -1.55814        1.96262
H         -4.58309       -0.77117        1.36329
H         -4.79892       -2.41313        2.00766
H         -3.98920       -1.18059        2.98745
H         -0.47020        1.08890        1.87973
C         -2.11144        0.80789        3.22268
H         -1.70733        1.59872        3.87588
H         -2.93174        1.24453        2.63670
H         -2.53497        0.03349        3.87937
C          0.03948       -0.49750        3.18352
H          0.84895       -0.89502        2.55610
H          0.49148        0.20355        3.90294
H         -0.39528       -1.33030        3.75485
