104
Cat716.ts34.5.log	Energy: -1734051.1290796
C          0.04313       -3.81108        0.52029
H          0.05947       -4.44669       -0.36885
H          0.89369       -3.95408        1.19393
C         -1.22031       -3.44467        1.06251
H         -2.14227       -3.71871        0.54240
H         -1.33559       -3.40712        2.15128
H         -1.10291       -1.81853        1.31142
Rh        -0.30310       -1.77040       -0.09573
C          1.44487       -0.48793        2.72645
O          3.06248       -1.38728        0.97530
O          1.74227        0.73935        0.25887
C         -1.12178        1.10372       -1.95179
O         -3.16073       -0.29684       -1.00877
O         -1.82279        1.04214        0.71254
P         -1.57617        0.01046       -0.57318
P          1.50060       -0.78761        0.92221
C         -0.00144       -2.13841       -1.93605
O          0.17710       -2.33103       -3.05744
H          2.42490       -0.12632        3.07431
H          1.32208       -1.50449        3.13795
C          0.28779        0.41724        3.13074
H          0.61676        1.46829        3.08591
H         -0.52623        0.33786        2.39139
C         -0.31446        0.14024        4.50993
H          0.50583        0.11537        5.25226
C         -1.26783        1.26812        4.88897
H         -0.75196        2.24038        4.91623
H         -1.72519        1.09852        5.87607
H         -2.08205        1.34994        4.14936
C         -1.03314       -1.20477        4.54807
H         -1.44682       -1.40878        5.54765
H         -0.36657       -2.04314        4.29284
H         -1.86899       -1.21522        3.82805
C          3.81862       -1.81350       -0.08548
C          3.30226       -2.64097       -1.08043
H          2.26576       -2.96706       -1.00880
C          5.16279       -1.40315       -0.10000
C          5.71706       -0.57692        1.01842
H          5.20967        0.39603        1.09095
H          5.57337       -1.08095        1.98671
H          6.79084       -0.39540        0.87540
C          4.10915       -3.02503       -2.14986
H          3.69321       -3.66021       -2.93522
C          5.94877       -1.80926       -1.18159
H          6.99511       -1.49301       -1.21294
C          5.43347       -2.60001       -2.20846
H          6.07179       -2.89369       -3.04472
C          2.85526        1.53370        0.31935
C          3.20063        2.20528        1.49177
H          2.59169        2.06849        2.38589
C          3.58417        1.71282       -0.86909
C          3.17098        1.01222       -2.12607
H          3.33086       -0.07484       -2.05086
H          2.09903        1.15715       -2.32654
H          3.74472        1.38060       -2.98671
C          4.30977        3.04941        1.50679
H          4.58144        3.57046        2.42756
C          4.69033        2.56588       -0.82431
H          5.27304        2.71431       -1.73737
C          5.06060        3.22532        0.34724
H          5.93207        3.88362        0.35030
H         -0.78085        0.41491       -2.74290
H         -0.21592        1.61986       -1.59641
C         -2.16843        2.06758       -2.49102
H         -3.02946        1.48481       -2.85353
H         -2.55023        2.70935       -1.68082
C         -1.64938        2.96838       -3.61506
H         -1.25184        2.31451       -4.41468
C         -2.79938        3.78101       -4.19902
H         -3.60692        3.12997       -4.56859
H         -2.46251        4.41103       -5.03669
H         -3.23136        4.44684       -3.43330
C         -0.52306        3.88468       -3.14734
H         -0.18732        4.54415       -3.96247
H          0.35769        3.32413       -2.79860
H         -0.86017        4.52121       -2.31239
C         -3.82689       -1.36616       -0.46424
C         -4.11299       -1.40264        0.89923
H         -3.79013       -0.57215        1.52863
C         -4.19763       -2.41138       -1.32174
C         -3.84490       -2.34976       -2.77545
H         -4.21622       -1.42144       -3.23576
H         -2.75233       -2.35826       -2.91504
H         -4.26662       -3.20437       -3.32150
C         -4.78694       -2.49822        1.43438
H         -5.00835       -2.52913        2.50373
C         -4.87835       -3.49579       -0.75989
H         -5.17748       -4.32177       -1.41098
C         -5.17112       -3.54783        0.60292
H         -5.70007       -4.41070        1.01365
C         -1.80090        2.41360        0.73677
C         -0.57857        3.08027        0.68910
H          0.33474        2.49125        0.60376
C         -3.01352        3.10779        0.87179
C         -4.31126        2.36420        0.93983
H         -4.41539        1.66497        0.09672
H         -4.37248        1.76128        1.86037
H         -5.16347        3.05682        0.93198
C         -0.54663        4.47166        0.74462
H          0.41368        4.99024        0.69844
C         -2.95088        4.50329        0.92906
H         -3.88403        5.06496        1.02622
C         -1.73662        5.18631        0.86023
H         -1.72290        6.27764        0.90321
