106
Cat728.ts34.5.log	Energy: -1547070.9149384
C          0.51105        3.33530        0.07815
H          0.48528        3.99604       -0.79272
H         -0.23962        3.56210        0.84211
C          1.77659        2.82678        0.50038
H          2.66946        3.03165       -0.09720
H          1.99162        2.78207        1.57377
H          1.44965        1.24533        0.78829
Rh         0.56154        1.29891       -0.56446
C         -1.09974       -0.38892        2.15703
C         -2.55602        1.84184        1.09599
C         -2.37377       -0.60060       -0.41415
C          0.68066       -1.76817       -2.28297
C          3.26436       -0.63951       -1.82689
C          1.89680       -1.79498        0.41081
P          1.57262       -0.71559       -1.05116
P         -1.33294        0.54702        0.59140
C          0.03739        1.68868       -2.33269
O         -0.31677        1.91969       -3.40812
C         -1.38162       -1.75201        2.28703
H         -1.83430       -2.28412        1.44991
C         -0.48529        0.26004        3.25296
O         -0.20369        1.56998        3.08269
C          0.48512        2.26444        4.08355
H         -0.08915        2.30577        5.02555
H          0.63046        3.28614        3.71035
H          1.47203        1.81243        4.28617
C         -1.09020       -2.45859        3.45529
H         -1.32944       -3.52205        3.52476
C         -0.19233       -0.43917        4.42649
H          0.27991        0.06599        5.26917
C         -0.50101       -1.79699        4.52594
H         -0.26929       -2.33299        5.44929
H         -3.39282        1.37017        1.63719
H         -2.03282        2.48577        1.81862
C         -3.05034        2.66046       -0.08729
H         -2.17995        3.01395       -0.66543
H         -3.62507        2.01874       -0.77838
C         -3.91070        3.84700        0.32327
H         -3.33167        4.49367        1.00799
H         -4.77756        3.49172        0.91052
C         -4.40300        4.67457       -0.85571
H         -3.53228        5.02015       -1.44030
H         -4.97817        4.02398       -1.53826
C         -5.25305        5.86649       -0.44662
H         -5.59304        6.44377       -1.31991
H         -4.69004        6.55281        0.20653
H         -6.14899        5.54668        0.10998
H         -2.38400       -0.15571       -1.42240
H         -1.77503       -1.51796       -0.52459
C         -3.78859       -0.92028        0.04867
H         -3.79617       -1.18759        1.11930
H         -4.41886       -0.01896       -0.03575
C         -4.42109       -2.04742       -0.75690
H         -3.80630       -2.96049       -0.64617
H         -4.37898       -1.79656       -1.83231
C         -5.85707       -2.35836       -0.36071
H         -5.89133       -2.59613        0.71744
H         -6.46960       -1.44765       -0.48326
C         -6.47016       -3.49849       -1.15760
H         -7.50806       -3.69912       -0.85139
H         -5.89862       -4.43156       -1.02434
H         -6.47912       -3.27183       -2.23594
C          0.70086       -1.32016       -3.60956
H          1.26215       -0.41568       -3.85492
C         -0.10428       -2.90466       -1.99551
O         -0.17855       -3.30094       -0.70303
C         -0.84543       -4.48495       -0.37252
H         -1.92668       -4.42491       -0.58963
H         -0.70789       -4.62551        0.70762
H         -0.42322       -5.35505       -0.90450
C          0.01056       -1.97067       -4.62846
H          0.05292       -1.58445       -5.64852
C         -0.79793       -3.56671       -3.01483
H         -1.39957       -4.44627       -2.78592
C         -0.73745       -3.10273       -4.32623
H         -1.28905       -3.62945       -5.10845
H          3.80101       -1.56651       -1.55863
H          3.13499       -0.66324       -2.91939
C          4.05864        0.59807       -1.43980
H          3.47649        1.48596       -1.73911
H          4.14701        0.66814       -0.34253
C          5.44559        0.64105       -2.06362
H          5.35551        0.56990       -3.16326
H          6.02030       -0.25159       -1.75440
C          6.22913        1.89528       -1.70137
H          5.64948        2.78282       -2.01116
H          6.31081        1.96355       -0.60186
C          7.61576        1.94577       -2.32204
H          8.15517        2.86318       -2.04119
H          7.56187        1.91565       -3.42232
H          8.22879        1.08799       -2.00100
H          0.91948       -1.98483        0.87215
H          2.28105       -2.76594        0.05902
C          2.82257       -1.17647        1.44593
H          3.84791       -1.07744        1.04952
H          2.47523       -0.15126        1.66361
C          2.84822       -1.97113        2.74390
H          3.26667       -2.97755        2.55935
H          1.81003       -2.13052        3.08160
C          3.63043       -1.28888        3.85636
H          4.67194       -1.12127        3.52861
H          3.20423       -0.28250        4.02101
C          3.61846       -2.06553        5.16279
H          4.18266       -1.54789        5.95370
H          4.06389       -3.06563        5.03721
H          2.58776       -2.21021        5.52504
