100
Cat72.ts34.5.log	Energy: -1545285.9013021
C         -1.11906        2.68746       -1.50127
H         -0.44168        3.11169       -2.24731
H         -2.14973        2.55362       -1.84091
C         -0.85553        2.89986       -0.12979
H          0.01567        3.49640        0.15968
H         -1.70224        2.99736        0.55847
H         -0.42768        1.57560        0.66871
Rh        -0.25895        0.80521       -0.77018
C         -3.20566        0.46601        1.17746
C         -3.37517       -0.96237       -1.28440
C         -1.69751       -2.05606        0.76305
C          2.96322       -0.46363       -1.27567
C          2.96708        2.09104       -0.05777
C          2.11307       -0.17092        1.59666
P          1.94524        0.53264       -0.09036
P         -2.11283       -0.44521       -0.02551
C          0.08274       -0.00106       -2.41072
O          0.33368       -0.53915       -3.40068
H         -3.76669       -0.23423        1.81365
H         -2.53341        1.03052        1.83885
C         -4.15443        1.42931        0.47502
H         -3.60571        2.00534       -0.28954
H         -4.91738        0.86378       -0.08437
C         -4.83632        2.39143        1.43717
H         -4.06898        2.97040        1.98400
H         -5.37886        1.81549        2.20933
C         -5.79748        3.35173        0.75081
H         -5.24787        3.91814       -0.02179
H         -6.56050        2.76919        0.20495
C         -6.47623        4.31682        1.70900
H         -7.16279        4.99728        1.18292
H         -5.73719        4.93690        2.24171
H         -7.06167        3.77776        2.47134
C         -3.16826       -0.50518       -2.59036
H         -2.29142        0.11327       -2.78724
C         -4.53162       -1.73091       -1.00210
C         -4.91760       -2.19962        0.37266
H         -5.46708       -1.40813        0.90952
H         -4.05239       -2.47848        0.98625
H         -5.58646       -3.06931        0.30944
C         -4.04961       -0.80677       -3.62581
H         -3.85322       -0.43688       -4.63462
C         -5.39809       -2.03372       -2.05956
H         -6.28528       -2.63790       -1.84944
C         -5.16945       -1.58520       -3.35800
H         -5.87071       -1.84362       -4.15533
C         -1.68933       -3.19568       -0.05847
H         -1.97641       -3.09929       -1.10843
C         -1.28420       -2.17466        2.10747
C         -1.15533       -0.99318        3.02176
H         -2.13049       -0.65024        3.39814
H         -0.67613       -0.14926        2.50090
H         -0.53123       -1.24366        3.88891
C         -1.34509       -4.44616        0.44065
H         -1.35802       -5.31700       -0.21906
C         -0.95695       -3.44791        2.59248
H         -0.64902       -3.54028        3.63774
C         -0.99440       -4.57877        1.78339
H         -0.73505       -5.55695        2.19551
H          2.39230       -1.37439       -1.50366
H          2.91771        0.14603       -2.19371
C          4.40849       -0.79091       -0.94520
H          4.98646        0.14268       -0.85297
H          4.47355       -1.29030        0.03674
C          5.05608       -1.67867       -1.99989
H          4.97777       -1.18947       -2.98768
H          4.48273       -2.61980       -2.08892
C          6.51466       -2.00073       -1.70651
H          7.08149       -1.05682       -1.61898
H          6.58538       -2.48267       -0.71507
C          7.16029       -2.89093       -2.75593
H          8.21284       -3.10563       -2.51642
H          7.13509       -2.41779       -3.75077
H          6.63446       -3.85577       -2.83925
C          2.48054        3.07010       -0.93981
H          1.56598        2.83741       -1.49228
C          4.17371        2.34373        0.63801
C          4.86648        1.39403        1.57824
H          4.53051        0.35909        1.48138
H          4.69498        1.68576        2.62645
H          5.95266        1.42448        1.40395
C          3.12560        4.28608       -1.13149
H          2.71609        5.01944       -1.83000
C          4.79767        3.58633        0.44220
H          5.72698        3.78780        0.98322
C          4.29169        4.55186       -0.41946
H          4.81492        5.50339       -0.54192
C          2.10046        0.73849        2.66665
H          2.05076        1.81007        2.45310
C          2.10005       -1.55499        1.87089
C          1.92695       -2.59232        0.80185
H          2.84279       -2.74661        0.21156
H          1.11997       -2.30091        0.11094
H          1.64901       -3.55691        1.24512
C          2.17322        0.30931        3.98541
H          2.17501        1.03986        4.79791
C          2.19813       -1.96532        3.20798
H          2.20641       -3.03795        3.42025
C          2.25253       -1.05603        4.25871
H          2.32889       -1.41230        5.28879
