82
Cat749.ts34.5.log	Energy: -1349873.2520273
C          1.77470       -1.43763       -2.65496
H          1.57455       -1.24791       -3.71305
H          2.81069       -1.25589       -2.35306
C          1.05379       -2.48624       -2.01130
H          0.26838       -3.01833       -2.55481
H          1.58774       -3.12809       -1.30272
H          0.58001       -1.80606       -0.58480
Rh         0.28214       -0.47793       -1.45628
C          1.99017        0.02382        1.65872
C          3.51512        0.82193       -0.64832
C          1.37919        2.46683        0.28977
C         -2.52829        1.14721        0.03367
C         -3.08217       -1.46374       -1.00399
C         -1.55469       -1.12974        1.46303
P         -1.69611       -0.47532       -0.26089
P          1.76858        0.68698       -0.04337
C         -0.34158        0.55466       -2.90460
O         -0.71676        1.16162       -3.81321
C          1.46811        0.65648        2.79115
H          0.96793        1.62044        2.68374
C          2.59348       -1.24204        1.83726
O          3.04390       -1.84987        0.71717
C          3.60900       -3.12713        0.80457
H          4.51761       -3.13274        1.43167
H          3.88112       -3.41844       -0.21795
H          2.89158       -3.86310        1.20814
C          1.55771        0.08858        4.06318
H          1.14175        0.61412        4.92519
C          2.69565       -1.81294        3.10796
H          3.16978       -2.78539        3.24101
C          2.18188       -1.14271        4.21923
H          2.26786       -1.59960        5.20782
H          4.14521        1.28385        0.12957
H          3.87347       -0.21035       -0.77038
C          3.61410        1.57905       -1.96618
H          3.34747        2.63868       -1.81187
H          2.85856        1.17912       -2.66334
C          4.99844        1.49235       -2.58995
H          5.77006        1.90219       -1.91823
H          5.27053        0.44625       -2.80444
H          5.04977        2.05031       -3.53745
H          1.14312        2.88747       -0.70209
H          0.41919        2.48387        0.83140
C          2.41922        3.33104        0.99261
H          3.30829        3.43154        0.34913
H          2.77148        2.83266        1.91054
C          1.88180        4.71380        1.33154
H          1.54309        5.24289        0.42617
H          1.01812        4.64999        2.01324
H          2.64633        5.33903        1.81777
C         -1.93674        2.29314       -0.49830
H         -1.01749        2.16286       -1.07140
C         -3.73583        1.30036        0.75321
O         -4.31847        0.17797        1.23132
C         -5.53146        0.26894        1.92407
H         -5.43443        0.86827        2.84607
H         -5.81327       -0.75643        2.19544
H         -6.32857        0.70476        1.29718
C         -2.48366        3.56396       -0.32040
H         -1.99161        4.43782       -0.75207
C         -4.28780        2.57169        0.94171
H         -5.21449        2.69448        1.50227
C         -3.65857        3.69659        0.40817
H         -4.10557        4.68157        0.56419
H         -3.77845       -1.74971       -0.20005
H         -3.62727       -0.76072       -1.65674
C         -2.63671       -2.66985       -1.81743
H         -2.03477       -3.34785       -1.18921
H         -1.95392       -2.32008       -2.60858
C         -3.80806       -3.42940       -2.42033
H         -4.48486       -3.81467       -1.64026
H         -4.40500       -2.77991       -3.08085
H         -3.46662       -4.28809       -3.01874
H         -0.84854       -0.45750        1.97725
H         -2.53543       -1.01590        1.94699
C         -1.06786       -2.56615        1.57864
H         -0.09621       -2.66066        1.06508
H         -1.76176       -3.24073        1.04836
C         -0.92923       -3.01240        3.02602
H         -0.21247       -2.37422        3.56492
H         -1.89346       -2.95685        3.55680
H         -0.57071       -4.05139        3.09413
