104
Cat78.ts34.5.log	Energy: -1734046.2522329
C         -1.31065       -2.49415       -2.78170
H         -1.23628       -3.58010       -2.68310
H         -2.33253       -2.13110       -2.93420
C         -0.23608       -1.79415       -3.40775
H          0.66131       -2.33942       -3.71320
H         -0.47505       -0.96569       -4.08329
H          0.04502       -0.51202       -2.39075
Rh        -0.20673       -1.56728       -1.19090
C         -2.98147        0.66639       -1.53692
O         -3.17010       -1.08773        0.40585
O         -1.48005        0.82453        0.76663
C          1.32594       -0.51338        1.73923
O          3.06039       -0.88437       -0.14680
O          1.43356        1.08455       -0.56275
P          1.44047       -0.51025       -0.08538
P         -1.92738       -0.30082       -0.39938
C          0.00859       -3.21197       -0.24162
O          0.14016       -4.19109        0.34363
H         -2.33994        1.48893       -1.89633
H         -3.11967       -0.00166       -2.40523
C         -4.32228        1.18534       -1.03844
H         -4.93970        0.33382       -0.71150
H         -4.17101        1.81461       -0.14809
C         -5.06147        1.99643       -2.09304
H         -5.23107        1.37368       -2.99085
H         -4.41981        2.83348       -2.42358
C         -6.39083        2.54917       -1.59840
H         -7.02622        1.71221       -1.25847
H         -6.20789        3.16801       -0.70216
C         -7.13318        3.36606       -2.64328
H         -8.08723        3.75349       -2.25473
H         -7.35910        2.76212       -3.53699
H         -6.53382        4.22955       -2.97426
C         -2.90103       -2.16818        1.20514
C         -2.10054       -2.03149        2.33812
H         -1.68953       -1.05000        2.57621
C         -3.45550       -3.40430        0.84486
C         -4.28407       -3.51915       -0.39679
H         -4.69687       -4.53121       -0.50532
H         -5.11661       -2.79907       -0.39017
H         -3.67808       -3.29636       -1.28910
C         -1.83518       -3.14233        3.13523
H         -1.20139       -3.03657        4.01898
C         -3.18184       -4.50012        1.66764
H         -3.60147       -5.47404        1.40138
C         -2.37677       -4.38044        2.79927
H         -2.17019       -5.25771        3.41596
C         -1.80095        2.15142        0.85860
C         -1.17198        3.06973        0.01888
H         -0.44082        2.70025       -0.70216
C         -2.71258        2.56192        1.84505
C         -3.35416        1.55355        2.74762
H         -3.80227        0.72925        2.17269
H         -2.61162        1.09709        3.42214
H         -4.13326        2.01756        3.36731
C         -1.46869        4.42619        0.13171
H         -0.97410        5.14456       -0.52595
C         -2.98856        3.92914        1.93737
H         -3.70063        4.26976        2.69419
C         -2.38327        4.85701        1.08982
H         -2.62191        5.91857        1.18564
H          0.57235        0.26131        1.95840
H          0.82871       -1.46852        1.97685
C          2.59356       -0.35188        2.56605
H          3.22808       -1.24101        2.42609
H          3.19256        0.49500        2.19847
C          2.29028       -0.15586        4.04426
H          1.67870       -1.00043        4.41212
H          1.65973        0.74399        4.17256
C          3.53985       -0.02094        4.90286
H          4.16515       -0.92172        4.77247
H          4.14696        0.81968        4.52228
C          3.24114        0.18759        6.37850
H          4.16355        0.28188        6.97133
H          2.66487       -0.65561        6.79236
H          2.64671        1.10131        6.54072
C          3.84000       -1.01486       -1.26545
C          3.41446       -1.73151       -2.38152
H          2.42738       -2.19580       -2.35817
C          5.10931       -0.41540       -1.21318
C          5.55555        0.31091        0.01819
H          4.89717        1.16454        0.24072
H          5.52695       -0.34975        0.89826
H          6.57974        0.68932       -0.10062
C          4.24484       -1.82297       -3.49704
H          3.90894       -2.37852       -4.37587
C          5.92073       -0.53000       -2.34509
H          6.91038       -0.06529       -2.32730
C          5.49782       -1.21517       -3.48391
H          6.15311       -1.28242       -4.35517
C          2.33001        2.08325       -0.29270
C          2.41528        2.64920        0.97844
H          1.75955        2.28505        1.76965
C          3.07990        2.58538       -1.36956
C          2.90151        2.02798       -2.74802
H          3.31060        1.00941       -2.83031
H          1.83431        1.96045       -3.00805
H          3.40857        2.65721       -3.49168
C          3.31588        3.68472        1.21701
H          3.38721        4.12044        2.21610
C          3.97131        3.62906       -1.10208
H          4.57061        4.02806       -1.92492
C          4.10658        4.16740        0.17655
H          4.81580        4.97866        0.35473
