122
Cat799.ts34.5.log	Energy: -2163066.9382746
C         -0.61011       -2.08420       -3.18208
H         -0.22063       -3.09955       -3.29463
H         -1.70139       -2.01323       -3.23055
C          0.18006       -1.00139       -3.68145
H          1.18263       -1.20253       -4.07052
H         -0.32745       -0.19197       -4.22158
H          0.11294        0.07822       -2.49943
Rh         0.27255       -1.16684       -1.47969
C         -2.25433        1.14258       -1.16359
C         -3.00505       -1.76755       -0.59776
C         -1.82468       -0.08205        1.40624
C          1.64126       -0.00025        1.53136
C          3.64369        0.21682       -0.53504
C          1.41626        1.96283       -0.83872
P          1.79977        0.20622       -0.37893
P         -1.71179       -0.47960       -0.39161
C          0.72536       -2.83635       -0.73555
O          0.94164       -3.88809       -0.30396
H         -1.30669        1.69903       -1.10789
H         -2.40122        0.88754       -2.21978
C         -3.35524        2.01825       -0.65271
C         -4.62890        2.04227       -1.23528
H         -4.85027        1.35655       -2.05324
C         -3.09678        2.89436        0.40511
H         -2.10590        2.86753        0.86179
C         -5.59818        2.92615       -0.77206
H         -6.58562        2.94337       -1.24117
C         -4.06358        3.77789        0.89701
C         -3.73979        4.68337        2.05079
H         -2.97929        5.43202        1.77293
H         -4.62760        5.22956        2.40006
H         -3.33594        4.10864        2.89981
C         -5.32180        3.79107        0.28771
H         -6.09088        4.48040        0.64759
C         -2.90275       -2.88946        0.25190
O         -1.94391       -2.81447        1.19256
C         -1.55235       -3.95562        1.90203
H         -0.70141       -3.64745        2.52270
H         -2.35690       -4.32815        2.55815
H         -1.22554       -4.75800        1.22015
C         -3.92238       -1.84143       -1.65819
O         -3.91955       -0.81142       -2.54198
C         -4.69509       -0.90208       -3.70174
H         -4.48349        0.00066       -4.29026
H         -5.77592       -0.93295       -3.47710
H         -4.42957       -1.79031       -4.30131
C         -4.76877       -2.94696       -1.81141
H         -5.49036       -2.98614       -2.62622
C         -3.73501       -4.00284        0.10189
H         -3.64722       -4.85389        0.77639
C         -4.67298       -4.01310       -0.92400
H         -5.33126       -4.87629       -1.04652
C         -0.67376       -0.09370        2.20646
O          0.43911       -0.69741        1.73177
C         -4.44288       -2.62532        3.65748
H         -5.18940       -2.09013        4.26014
H         -4.71370       -2.57449        2.59463
H         -4.40904       -3.67533        3.97885
C         -3.04538        0.27415        2.02035
O         -4.15194        0.08277        1.28800
C         -5.39737        0.48509        1.78498
H         -6.12698        0.26611        0.99615
H         -5.41662        1.56706        1.99318
H         -5.66907       -0.07576        2.69534
C         -3.07088        0.77281        3.32865
H         -4.01113        1.07964        3.78556
C         -0.69043        0.38561        3.52191
H          0.22799        0.34833        4.11108
C         -1.88651        0.84052        4.06119
H         -1.91338        1.21419        5.08811
H          1.61482        0.99520        1.98593
H         -3.45969       -2.15769        3.79613
C          2.79723       -0.79449        2.06155
C          2.77756       -2.19167        2.04968
H          1.88283       -2.71494        1.71489
C          3.94270       -0.13204        2.50913
H          3.95023        0.96142        2.52052
C          3.90514       -2.90048        2.45512
H          3.88730       -3.99338        2.44644
C          5.08952       -0.82941        2.89589
C          6.33329       -0.08554        3.28703
H          6.10148        0.78550        3.91868
H          7.03692       -0.72830        3.83524
H          6.85142        0.29111        2.38913
C          5.05580       -2.22795        2.86319
H          5.94074       -2.79436        3.16706
C          4.41546        1.34732       -0.21063
O          3.76097        2.37778        0.36894
C          4.33904        3.65105        0.38835
H          3.55009        4.34535        0.70770
H          5.18227        3.71392        1.09889
H          4.68934        3.95150       -0.61360
C          4.32778       -0.94440       -0.94696
O          3.58544       -2.04244       -1.13087
C          4.19828       -3.27836       -1.35772
H          3.38924       -4.01885       -1.37816
H          4.89917       -3.53243       -0.54352
H          4.73609       -3.30198       -2.32178
C          5.71804       -0.93491       -1.13208
H          6.23716       -1.83322       -1.46305
C          5.79959        1.37388       -0.41431
H          6.38099        2.26383       -0.17451
C          6.43405        0.22852       -0.88242
H          7.51646        0.23603       -1.03271
C          1.76671        2.33414       -2.15446
O          2.40460        1.38958       -2.86923
C          2.78468        1.63929       -4.18944
H          3.27635        0.72575       -4.54647
H          1.91352        1.85303       -4.83324
H          3.49807        2.47932       -4.25845
C          0.77022        2.92676       -0.04866
O          0.42398        2.57056        1.21046
C          0.15626        3.56126        2.16506
H          0.02753        3.03619        3.12003
H         -0.77389        4.11154        1.94842
H          0.98949        4.28143        2.23936
C          0.48194        4.20456       -0.54719
H         -0.03537        4.93370        0.07493
C          1.47939        3.60494       -2.66327
H          1.75473        3.87154       -3.68294
C          0.83500        4.53048       -1.84978
H          0.60020        5.52324       -2.24028
