98
Cat731.ts34.5.log	Energy: -1637210.2496416
C         -2.24708        2.50852       -0.30734
H         -2.19772        3.29423       -1.06605
H         -3.14701        1.89044       -0.33655
C         -1.61390        2.74174        0.94573
H         -1.03539        3.65620        1.10348
H         -2.10242        2.37520        1.85428
H         -0.73732        1.30706        1.24493
Rh        -0.42265        1.36225       -0.33358
C         -1.97001       -1.63641        0.86077
O         -2.63010       -0.98675       -1.59922
O         -0.22711       -1.77749       -1.18987
C          2.71856       -0.18685       -0.81727
O          2.57423        1.62544        1.21673
O          1.42096       -0.56855        1.51606
P          1.58180        0.60589        0.38314
P         -1.34573       -0.72300       -0.59538
C          0.12060        2.22887       -1.92838
O          0.42267        2.79072       -2.89103
C         -1.21366       -2.65727        1.43676
H         -0.27785       -2.94737        0.95962
C         -3.12287       -1.18784        1.53561
O         -3.76240       -0.12961        0.99320
C         -4.83842        0.44780        1.67859
H         -5.68947       -0.24940        1.76746
H         -5.15253        1.31810        1.08852
H         -4.54287        0.78566        2.68734
C         -1.61335       -3.27787        2.61995
H         -1.00888       -4.08004        3.04825
C         -3.53011       -1.80679        2.72105
H         -4.42861       -1.47401        3.24076
C         -2.77804       -2.85602        3.25091
H         -3.10666       -3.33144        4.17829
C         -2.75036       -0.23601       -2.79603
H         -2.37438        0.78968       -2.62729
H         -2.12020       -0.69126       -3.58184
C         -4.20160       -0.22596       -3.22285
H         -4.26822        0.26775       -4.20834
H         -4.53077       -1.26920       -3.37326
C         -5.12000        0.46009       -2.22216
H         -4.81394        1.51648       -2.11992
H         -4.95282       -0.00170       -1.23640
C         -6.58933        0.38338       -2.60147
H         -6.78061        0.85616       -3.57867
H         -6.92833       -0.66290       -2.67238
H         -7.22765        0.88832       -1.85996
C         -0.53098       -3.04602       -1.74734
H         -1.18281       -3.62303       -1.06704
H         -1.08916       -2.91041       -2.68905
C          0.77507       -3.76999       -1.99773
H          0.54737       -4.73157       -2.49085
H          1.36927       -3.17841       -2.71497
C          1.60066       -4.00529       -0.73960
H          1.01567       -4.61877       -0.03064
H          1.77062       -3.03479       -0.24483
C          2.93291       -4.68077       -1.01954
H          2.79629       -5.66943       -1.48763
H          3.54527       -4.06979       -1.70065
H          3.51281       -4.82861       -0.09508
C          2.34268       -0.24064       -2.15856
H          1.37572        0.18102       -2.43670
C          3.93705       -0.78830       -0.43243
O          4.25783       -0.73393        0.87416
C          5.42049       -1.36923        1.32547
H          5.40571       -2.45073        1.10499
H          5.45017       -1.22762        2.41326
H          6.32974       -0.92601        0.88319
C          3.15229       -0.83996       -3.12227
H          2.83613       -0.86430       -4.16674
C          4.75355       -1.39229       -1.39420
H          5.69879       -1.85373       -1.10898
C          4.35825       -1.41039       -2.73200
H          5.00759       -1.88618       -3.47127
C          3.58251        2.43639        0.64607
H          4.13181        2.85251        1.50631
H          4.29007        1.81029        0.07484
C          3.04495        3.55443       -0.22586
H          3.90648        4.15520       -0.56808
H          2.59679        3.12442       -1.13746
C          2.02438        4.43753        0.47506
H          2.48940        4.89883        1.36483
H          1.21520        3.78814        0.84610
C          1.44260        5.51029       -0.42990
H          2.22394        6.18732       -0.81243
H          0.94230        5.05895       -1.30087
H          0.70012        6.12694        0.09990
C          1.89095       -0.49585        2.85288
H          1.85689       -1.53453        3.22037
H          2.93813       -0.16093        2.85807
C          1.03960        0.40614        3.72653
H          1.50467        0.44051        4.72855
H          1.10054        1.43282        3.32666
C         -0.41312       -0.02790        3.83676
H         -0.46584       -1.02994        4.29546
H         -0.81998       -0.15071        2.82086
C         -1.27658        0.94524        4.62016
H         -0.92118        1.06505        5.65692
H         -1.26883        1.94542        4.15649
H         -2.32274        0.60403        4.66458
