70
Cat727.ts34.5.log	Energy: -1251272.7216432
C         -1.99281       -2.44396       -1.44062
H         -1.69509       -3.48875       -1.56428
H         -2.92514       -2.30028       -0.88714
C         -1.66876       -1.52519       -2.48040
H         -1.06951       -1.85957       -3.33135
H         -2.40253       -0.75994       -2.75206
H         -1.04028       -0.20058       -1.67567
Rh        -0.33382       -1.29570       -0.71839
C         -2.24136        1.27742        0.88403
C         -2.89538       -1.37983        1.79561
C         -0.48301       -0.12717        2.67768
C          2.79351        0.03076        0.37679
C          2.43751        0.00927       -2.47775
C          1.03072        1.93842       -0.78829
P          1.46287        0.14143       -0.90053
P         -1.48069       -0.37949        1.13506
C          0.66451       -2.85684       -0.37078
O          1.26076       -3.83401       -0.21376
C         -1.72169        2.44367        1.45307
H         -0.89999        2.37167        2.16753
C         -3.29214        1.42018       -0.05094
O         -3.74981        0.27799       -0.61072
C         -4.76387        0.33697       -1.57352
H         -5.69866        0.75358       -1.15935
H         -4.94453       -0.69547       -1.89873
H         -4.46179        0.93897       -2.44835
C         -2.21323        3.70910        1.12792
H         -1.78051        4.59768        1.59227
C         -3.79764        2.68149       -0.37354
H         -4.61189        2.78387       -1.09102
C         -3.25520        3.82390        0.21654
H         -3.65621        4.80548       -0.04654
H         -3.62793       -1.43969        0.97969
C         -2.45711       -2.76753        2.23363
H         -1.77971       -2.73267        3.10136
H         -1.92267       -3.28052        1.41924
H         -3.38115       -0.82635        2.61483
H         -3.32428       -3.38268        2.51946
H          0.31022        0.59526        2.42520
C         -1.20908        0.25018        3.96032
H         -1.86107       -0.56508        4.30704
H         -1.83931        1.14353        3.83869
H          0.05224       -1.08047        2.80876
H         -0.48902        0.45582        4.76822
C          2.64094       -0.89311        1.41129
H          1.74229       -1.51241        1.40398
C          3.96189        0.82728        0.37009
O          4.10534        1.70811       -0.64575
C          5.26120        2.49410       -0.72226
H          5.36298        3.16188        0.15092
H          5.16265        3.10654       -1.62760
H          6.17146        1.87552       -0.80646
C          3.58948       -1.03997        2.42315
H          3.43732       -1.77694        3.21410
C          4.91662        0.68838        1.38278
H          5.81712        1.30246        1.38173
C          4.72607       -0.24213        2.40416
H          5.48386       -0.33858        3.18568
H          3.21723       -0.74272       -2.27336
C          1.61669       -0.41042       -3.68451
H          0.80119        0.29705       -3.89793
H          1.15648       -1.39341       -3.51065
H          2.95733        0.96438       -2.64333
H          2.25230       -0.47335       -4.58180
H          1.96850        2.50853       -0.85107
C          0.01773        2.43355       -1.80418
H         -0.91173        1.84648       -1.75703
H          0.40650        2.37599       -2.83267
H          0.63368        2.07097        0.23029
H         -0.24485        3.48339       -1.60290
