98
Cat768.ts34.5.log	Energy: -1732221.9102187
C          2.00911       -1.45521       -2.45892
H          1.76912       -1.36482       -3.52200
H          2.99270       -1.06890       -2.17762
C          1.47417       -2.55737       -1.73825
H          0.78717       -3.24300       -2.24182
H          2.10382       -3.04786       -0.98677
H          0.88729       -1.88584       -0.37339
Rh         0.37010       -0.66526       -1.29944
O          2.35955        0.09021        1.36396
C          2.97510        1.71840       -0.75400
C          0.73987        2.20375        0.87391
O         -2.14785        0.38070        0.74720
C         -3.08576       -1.51347       -0.98026
C         -1.41195       -2.03416        1.34038
P         -1.56437       -0.92912       -0.12161
P          1.58322        0.79682        0.04481
C         -0.31769        0.26734       -2.79804
O         -0.68987        0.83775       -3.72799
C          2.88296       -1.16491        1.25324
C          4.03677       -1.38201        0.50058
H          4.50527       -0.53281       -0.00364
C          2.25442       -2.22367        1.91131
H          1.34295       -2.03957        2.48069
C          4.58098       -2.66646        0.38261
C          5.79401       -2.89446       -0.47148
H          5.53150       -2.84582       -1.54140
H          6.56182       -2.12694       -0.29240
H          6.24219       -3.87998       -0.28293
C          2.79877       -3.50003        1.80603
H          2.30813       -4.33279        2.31538
C          3.94914       -3.72300        1.04837
H          4.36222       -4.73189        0.96893
C          2.98687        1.72580       -2.15331
H          2.19753        1.18628       -2.68029
C          3.98405        2.41542       -0.04568
C          4.03038        2.50894        1.45066
H          4.18148        1.52486        1.91575
H          3.08332        2.90325        1.84811
H          4.84159        3.17780        1.76861
C          3.97323        2.39586       -2.87269
H          3.95331        2.38946       -3.96481
C          4.97662        3.06396       -0.78967
H          5.76348        3.60009       -0.25176
C          4.98114        3.06020       -2.18296
H          5.77199        3.58410       -2.72552
C          0.30507        3.17032       -0.04706
H          0.46086        2.99626       -1.11576
C          0.49583        2.39445        2.25027
C          0.87609        1.41959        3.32939
H          1.96354        1.39889        3.49201
H          0.58827        0.39222        3.07912
H          0.39275        1.70108        4.27573
C         -0.30586        4.34692        0.36316
H         -0.63204        5.07978       -0.37700
C         -0.12430        3.59280        2.63797
H         -0.30550        3.75781        3.70401
C         -0.50651        4.56666        1.72310
H         -0.98186        5.48656        2.07139
C         -2.67950        1.52788        0.25475
C         -3.09603        2.46003        1.20793
H         -2.94634        2.22082        2.26255
C         -2.84470        1.79285       -1.10514
H         -2.55297        1.06291       -1.85699
C         -3.65979        3.67584        0.82408
C         -4.11545        4.66159        1.86027
H         -5.17809        4.50782        2.11249
H         -3.53841        4.56027        2.79078
H         -4.01246        5.69662        1.50245
C         -3.40010        3.01155       -1.49016
H         -3.51840        3.22514       -2.55514
C         -3.80093        3.94836       -0.54290
H         -4.23143        4.90057       -0.86347
C         -2.92269       -1.90241       -2.31457
H         -1.92315       -1.82289       -2.75322
C         -4.35900       -1.60335       -0.37172
C         -4.63929       -1.18415        1.04126
H         -4.63742       -0.08706        1.13431
H         -3.88574       -1.56580        1.74281
H         -5.62607       -1.54846        1.35827
C         -3.98823       -2.38649       -3.06589
H         -3.83600       -2.68441       -4.10562
C         -5.41632       -2.09468       -1.14808
H         -6.40630       -2.17154       -0.69023
C         -5.24422       -2.48265       -2.47421
H         -6.09680       -2.86012       -3.04426
C         -1.34372       -1.46553        2.61847
H         -1.48797       -0.39074        2.72314
C         -1.25650       -3.42745        1.18530
C         -1.37958       -4.11067       -0.14375
H         -0.91895       -3.51856       -0.94576
H         -2.43798       -4.24803       -0.41722
H         -0.90139       -5.09981       -0.12146
C         -1.10187       -2.25092        3.74240
H         -1.04604       -1.78485        4.72891
C         -1.00992       -4.19573        2.32939
H         -0.88353       -5.27588        2.21450
C         -0.92640       -3.62452        3.59629
H         -0.72902       -4.25357        4.46755
