110
Cat733.ts34.5.log	Energy: -1642669.9457954
C         -0.99597        0.55524       -3.39035
H         -0.70890       -0.11831       -4.20257
H         -2.07551        0.71462       -3.30594
C         -0.12233        1.64057       -3.07376
H          0.84103        1.72835       -3.58479
H         -0.56819        2.61596       -2.84861
H         -0.08079        1.60071       -1.43879
Rh         0.01688       -0.00080       -1.59541
C         -1.68675        1.25621        1.23761
C         -3.45674        0.38313       -0.88661
C         -2.03557       -1.58496        0.90678
C          1.64966       -1.06710        1.34636
C          3.40964       -0.46240       -0.89131
C          2.07443        1.70921        0.74360
P          1.79872        0.06664       -0.10691
P         -1.81412       -0.01936       -0.08998
C          0.49491       -1.65621       -2.34594
O          0.78663       -2.63473       -2.89146
C         -1.42753        0.94371        2.57551
H         -1.38680       -0.09975        2.88457
C         -1.71955        2.62897        0.89152
O         -1.97559        2.91492       -0.40378
C         -2.00801        4.24954       -0.82429
H         -2.79278        4.82443       -0.30258
H         -2.23620        4.23272       -1.89765
H         -1.03531        4.74897       -0.67208
C         -1.19295        1.92649        3.53931
H         -0.98948        1.63548        4.57221
C         -1.49921        3.61861        1.85214
H         -1.53223        4.67214        1.57521
C         -1.22979        3.26584        3.17527
H         -1.05452        4.04958        3.91583
H         -3.15427        1.19852       -1.56573
C         -4.58364        0.94123       -0.01796
H         -4.21788        1.77142        0.60431
H         -4.94807        0.16905        0.67773
C         -5.74213        1.41090       -0.89500
H         -6.56279        1.79552       -0.26712
H         -5.40033        2.26005       -1.51500
C         -6.24695        0.29604       -1.80532
H         -7.05611        0.66595       -2.45621
H         -6.69092       -0.50230       -1.18267
C         -5.11839       -0.29750       -2.64208
H         -4.74862        0.46518       -3.35148
H         -5.49182       -1.13446       -3.25453
C         -3.95924       -0.76287       -1.76566
H         -4.30586       -1.59568       -1.12991
H         -3.13517       -1.15709       -2.38183
H         -1.16790       -1.54624        1.59206
C         -1.83299       -2.84714        0.06360
H         -0.88912       -2.76183       -0.49281
H         -2.63005       -2.92866       -0.69345
C         -1.83583       -4.09944        0.93518
H         -1.72876       -4.99577        0.30138
H         -0.95285       -4.07192        1.59623
C         -3.08903       -4.20181        1.79623
H         -3.03979       -5.09192        2.44482
H         -3.97175       -4.33952        1.14522
C         -3.27922       -2.94080        2.63030
H         -2.44686       -2.85106        3.35249
H         -4.20502       -3.00501        3.22550
C         -3.31028       -1.69799        1.74527
H         -4.17846       -1.77062        1.06924
H         -3.46746       -0.79454        2.35385
C          1.39034       -0.61057        2.64183
H          1.33112        0.45940        2.83459
C          1.69609       -2.46773        1.15018
O          1.93258       -2.88780       -0.10548
C          1.94220       -4.25883       -0.39959
H          2.77166       -4.77620        0.11288
H          2.07181       -4.33624       -1.48522
H          0.98808       -4.73736       -0.12216
C          1.18084       -1.48319        3.71094
H          0.97578       -1.08282        4.70609
C          1.51191       -3.34769        2.22093
H          1.56842       -4.42415        2.06114
C          1.24787       -2.85404        3.49777
H          1.09876       -3.55313        4.32399
H          3.07097       -1.34815       -1.45211
C          4.55570       -0.92212        0.00841
H          4.19896       -1.65471        0.74774
H          4.96064       -0.07285        0.58059
C          5.67229       -1.52731       -0.83939
H          6.50839       -1.84627       -0.19543
H          5.29202       -2.44027       -1.33274
C          6.16292       -0.54821       -1.90133
H          6.94222       -1.01527       -2.52559
H          6.64219        0.31320       -1.40066
C          5.01613       -0.04275       -2.77081
H          4.60869       -0.88109       -3.36378
H          5.38287        0.70241       -3.49579
C          3.89364        0.55245       -1.92609
H          4.26829        1.45844       -1.41806
H          3.04760        0.86278       -2.56080
H          1.19126        1.76813        1.40775
C          1.97095        2.92747       -0.17792
H          1.05136        2.86182       -0.77548
H          2.80798        2.93270       -0.89555
C          1.98103        4.22281        0.62896
H          1.93090        5.08821       -0.05305
H          1.06910        4.25655        1.25003
C          3.20200        4.32958        1.53453
H          3.15224        5.24795        2.14226
H          4.11167        4.41683        0.91276
C          3.32844        3.10123        2.42729
H          2.47652        3.06958        3.13126
H          4.24112        3.16201        3.04244
C          3.33945        1.81995        1.59876
H          4.21709        1.83953        0.93106
H          3.46430        0.94120        2.24825
