90
Cat744.ts34.5.log	Energy: -2071295.1423565
C          0.18490        2.07401       -3.06981
H         -0.25912        3.06810       -2.97513
H          1.23265        2.07202       -3.38571
C         -0.65990        0.99420       -3.46104
H         -1.73260        1.16250       -3.59244
H         -0.26556        0.25098       -4.16434
H         -0.36712       -0.19229       -2.40733
Rh        -0.24173        0.96570       -1.27385
C          3.23395        0.23578       -1.99125
O          2.68729        1.60418        0.21593
O          2.18880       -0.92624        0.21094
C         -1.02160       -1.29847        1.31436
O         -2.83162        0.46786        0.82856
O         -2.57158       -1.31927       -0.99775
P         -1.65157       -0.29747       -0.06909
P          1.93420        0.45426       -0.72172
C         -0.69916        2.54835       -0.31759
O         -1.01598        3.49688        0.24322
C          2.75753       -0.27026       -3.20473
H          1.68290       -0.44877       -3.29567
C          4.62690        0.44224       -1.84421
O          5.07346        0.87767       -0.66209
C          6.45001        0.96347       -0.42216
H          6.94751       -0.01144       -0.56266
H          6.55936        1.26858        0.62570
H          6.93416        1.71634       -1.06834
C          3.60633       -0.56701       -4.26825
H          3.20451       -0.96300       -5.20261
C          5.47968        0.15618       -2.91962
H          6.55361        0.31337       -2.82080
C          4.97062       -0.34093       -4.11701
H          5.65854       -0.55633       -4.93843
C          2.06507        2.23867        1.24754
C          2.30641        3.60432        1.40499
H          2.96472        4.10438        0.69285
C          1.22116        1.56862        2.13817
H          1.02571        0.50260        2.01427
C          1.70408        4.30424        2.44484
H          1.87142        5.37376        2.58328
C          0.61101        2.26970        3.17506
H         -0.05934        1.76721        3.87429
C          0.85623        3.62874        3.31550
F          0.27060        4.30034        4.30801
C          3.41691       -1.33886        0.64665
C          3.89020       -0.92475        1.89268
H          3.27966       -0.25607        2.50068
C          4.18405       -2.19597       -0.14505
H          3.80808       -2.50039       -1.12308
C          5.13262       -1.35884        2.34410
H          5.52501       -1.04855        3.31428
C          5.42994       -2.63100        0.30131
H          6.05010       -3.29665       -0.30174
C          5.89020       -2.20311        1.54014
F          7.08705       -2.61102        1.96735
C         -1.20413       -0.92154        2.64636
H         -1.85707       -0.07540        2.86602
C         -0.19209       -2.39586        1.01132
O         -0.10436       -2.71124       -0.28838
C          0.75380       -3.74064       -0.69531
H          1.78846       -3.55600       -0.36660
H          0.72090       -3.75566       -1.79173
H          0.41811       -4.72007       -0.31252
C         -0.55873       -1.60823        3.67390
H         -0.70434       -1.30439        4.71243
C          0.45476       -3.08600        2.04018
H          1.10895       -3.92857        1.81673
C          0.27200       -2.68211        3.36193
H          0.78903       -3.22313        4.15810
C         -3.98137        0.99674        0.30646
C         -5.14385        0.82924        1.06052
H         -5.08160        0.29254        2.00843
C         -4.02843        1.65849       -0.92120
H         -3.11122        1.78456       -1.49961
C         -6.35832        1.31275        0.58789
H         -7.28113        1.18504        1.15626
C         -5.24620        2.13738       -1.39984
H         -5.31165        2.65617       -2.35800
C         -6.39652        1.95736       -0.64332
F         -7.56228        2.41188       -1.10656
C         -3.74619       -1.90757       -0.60040
C         -4.86843       -1.68766       -1.40130
H         -4.76637       -1.05633       -2.28502
C         -3.84486       -2.69935        0.54372
H         -2.96638       -2.87663        1.16327
C         -6.09518       -2.24164       -1.05545
H         -6.98691       -2.07345       -1.66158
C         -5.07578       -3.24879        0.89836
H         -5.18186       -3.86660        1.79190
C         -6.18589       -3.01099        0.09904
F         -7.36331       -3.53463        0.44363
