102
Cat780.ts34.5.log	Energy: -1920882.1038173
C         -1.36446        0.60709       -3.32346
H         -1.12452        0.06689       -4.24289
H         -2.43637        0.64619       -3.09790
C         -0.52272        1.69278       -2.93570
H          0.37911        1.91715       -3.51313
H         -0.98768        2.59194       -2.51467
H         -0.23680        1.44468       -1.33760
Rh        -0.13070       -0.12248       -1.73174
O         -2.09826        0.31189        1.09307
C         -3.45145       -1.06953       -0.94904
C         -1.51253       -2.21815        0.78557
O          2.43334       -1.52954       -0.28127
C          3.06767        1.04499       -0.98635
C          1.37086        0.36770        1.34776
P          1.69652       -0.02503       -0.39807
P         -1.79459       -0.70971       -0.21132
C          0.48832       -1.62414       -2.70943
O          0.89822       -2.53829       -3.27939
C         -2.47978        1.59756        1.02100
C         -2.73382        2.26920       -0.17909
H         -2.63756        1.73104       -1.12292
C         -2.65991        2.26652        2.23801
H         -2.47102        1.71688        3.16060
C         -3.15131        3.60388       -0.18333
C         -3.38235        4.31210       -1.48773
H         -2.45414        4.78736       -1.84808
H         -3.71282        3.61463       -2.27131
H         -4.13694        5.10602       -1.38993
C         -3.08696        3.59002        2.23742
H         -3.23753        4.10597        3.18952
C         -3.32774        4.26385        1.03837
H         -3.66473        5.30350        1.05055
C         -3.38055       -1.89875       -2.07421
H         -2.39415       -2.24452       -2.39814
C         -4.71696       -0.58442       -0.55673
O         -4.78920        0.19926        0.53421
C         -5.90976        1.01018        0.73690
H         -6.15612        1.59738       -0.16474
H         -5.64573        1.70177        1.54809
H         -6.79831        0.42546        1.03636
C         -4.51231       -2.26651       -2.79594
H         -4.41989       -2.92119       -3.66465
C         -5.85352       -0.92697       -1.30269
H         -6.83138       -0.54535       -1.00701
C         -5.75200       -1.76724       -2.40793
H         -6.65328       -2.02579       -2.96930
C         -0.35684       -2.96348        0.56121
H          0.34503       -2.62186       -0.20109
C         -2.42463       -2.65637        1.77201
O         -3.53965       -1.93079        1.91945
C         -4.50167       -2.29926        2.86030
H         -4.91277       -3.30434        2.65848
H         -5.30737       -1.55910        2.77717
H         -4.09938       -2.27810        3.88861
C         -0.07581       -4.11297        1.30005
H          0.84036       -4.67443        1.10699
C         -2.14174       -3.80276        2.52234
H         -2.83573       -4.14444        3.29075
C         -0.96915       -4.52056        2.28405
H         -0.76320       -5.41443        2.87864
C          3.76189       -1.80169       -0.12481
C          4.53430       -1.19802        0.86541
H          4.07608       -0.46088        1.52601
C          4.32174       -2.74708       -0.98532
H          3.69062       -3.19895       -1.75277
C          5.88912       -1.51717        0.99962
C          6.72853       -0.81132        2.02552
H          6.13235       -0.52022        2.90276
H          7.56369       -1.43866        2.36944
H          7.16500        0.11018        1.60317
C          5.66427       -3.08146       -0.83901
H          6.10971       -3.82471       -1.50491
C          6.44571       -2.47137        0.14148
H          7.50143       -2.73717        0.24066
C          3.24379        1.04579       -2.37319
H          2.54565        0.45334       -2.97285
C          3.93477        1.83270       -0.19794
O          3.75570        1.81707        1.13376
C          4.53043        2.63513        1.96095
H          5.59909        2.35934        1.92795
H          4.15236        2.48445        2.98037
H          4.42700        3.70126        1.69374
C          4.25462        1.78125       -2.98649
H          4.37353        1.75421       -4.07123
C          4.93875        2.58941       -0.81370
H          5.60965        3.20290       -0.21233
C          5.09702        2.55700       -2.19739
H          5.89088        3.15133       -2.65670
C          1.39929       -0.61600        2.33256
H          1.71842       -1.62538        2.06787
C          0.92901        1.66269        1.67587
O          0.91451        2.54014        0.65594
C          0.47079        3.85275        0.86929
H         -0.57233        3.87718        1.22212
H          0.53279        4.36003       -0.10158
H          1.11713        4.38216        1.59171
C          1.01652       -0.32126        3.64204
H          1.03720       -1.10298        4.40376
C          0.56041        1.96658        2.98572
H          0.21859        2.96814        3.24584
C          0.60582        0.96827        3.96158
H          0.30533        1.21030        4.98424
