102
Cat774.ts34.5.log	Energy: -1920986.3575314
C         -0.26887       -1.91323       -3.74980
H          0.04951       -2.95020       -3.88298
H         -1.33509       -1.73254       -3.91326
C          0.65866       -0.87947       -4.03347
H          1.68745       -1.12978       -4.30520
H          0.29200        0.04917       -4.48382
H          0.60598        0.12209       -2.69889
Rh         0.47601       -1.22992       -1.82840
O         -2.04085        0.89994       -1.93157
O         -2.94603       -1.09646       -0.82042
O         -1.29725        0.38107        0.45287
O          2.26919       -0.88418        0.95947
O          3.58425       -0.54405       -1.18198
O          2.06441        1.27147       -0.21037
P          2.06656       -0.33840       -0.56568
P         -1.46597       -0.35142       -1.02871
C          0.85439       -2.99496       -1.19734
O          1.09236       -4.04390       -0.79850
C         -2.92312        1.85854       -1.48985
C         -4.25858        1.55269       -1.24257
H         -4.60378        0.53277       -1.40793
C         -2.43768        3.15245       -1.30942
H         -1.39011        3.36007       -1.53038
C         -5.12775        2.53469       -0.75428
C         -6.54530        2.17819       -0.41366
H         -6.98917        1.52073       -1.17595
H         -6.58698        1.63634        0.54612
H         -7.17757        3.07222       -0.31981
C         -3.30467        4.13574       -0.84233
H         -2.93588        5.15391       -0.69497
C         -4.63543        3.82949       -0.55626
H         -5.30424        4.60763       -0.17939
C         -3.20165       -2.38411       -0.42052
C         -2.47838       -3.46011       -0.93102
H         -1.70608       -3.27016       -1.67479
C         -4.25507       -2.57692        0.48927
C         -5.11112       -1.43396        0.94005
H         -4.51425       -0.55075        1.20177
H         -5.80230       -1.12773        0.13700
H         -5.71549       -1.71869        1.81166
C         -2.74088       -4.75093       -0.47886
H         -2.15502       -5.58647       -0.86819
C         -4.49636       -3.88437        0.92205
H         -5.30289       -4.05267        1.64103
C         -3.74361       -4.96438        0.46298
H         -3.95259       -5.97165        0.82981
C         -2.07089        0.30790        1.58597
C         -2.87507        1.40144        1.91041
H         -2.91403        2.24871        1.22485
C         -1.95380       -0.80247        2.43751
C         -1.05894       -1.96398        2.12554
H         -1.64082       -2.82307        1.75567
H         -0.30934       -1.71750        1.36256
H         -0.52416       -2.28868        3.02956
C         -3.61113        1.39263        3.09063
H         -4.24241        2.24833        3.34031
C         -2.71227       -0.78163        3.61565
H         -2.64058       -1.63652        4.29344
C         -3.53525        0.29179        3.94406
H         -4.11034        0.27325        4.87254
C          2.40986       -0.17241        2.13643
C          1.31660        0.51039        2.65448
H          0.38950        0.52545        2.08543
C          3.62446       -0.21104        2.81437
H          4.47233       -0.74570        2.38506
C          1.40941        1.17738        3.87922
C          0.22095        1.92309        4.41315
H          0.06612        2.86353        3.85865
H         -0.70275        1.33471        4.30422
H          0.34837        2.17894        5.47443
C          3.72077        0.45128        4.03589
H          4.66701        0.42989        4.58175
C          2.62843        1.13726        4.56554
H          2.72157        1.64831        5.52739
C          4.74104       -0.37307       -0.45161
C          5.23118        0.90418       -0.19603
H          4.68231        1.77225       -0.56390
C          5.40131       -1.52739       -0.00581
C          4.81828       -2.87910       -0.27723
H          3.87125       -3.01139        0.27028
H          4.58392       -3.00463       -1.34501
H          5.50748       -3.67685        0.03039
C          6.40970        1.05093        0.53233
H          6.79505        2.05106        0.74217
C          6.58736       -1.34956        0.71310
H          7.12288       -2.23353        1.06992
C          7.08863       -0.07708        0.98740
H          8.01457        0.03148        1.55660
C          1.85468        2.28724       -1.10236
C          2.34957        2.23690       -2.40599
H          2.91281        1.36267       -2.73710
C          1.15620        3.40678       -0.62275
C          0.62136        3.41640        0.77452
H          0.17444        4.38968        1.01843
H         -0.14928        2.63872        0.89334
H          1.41163        3.18970        1.50574
C          2.13278        3.31295       -3.26610
H          2.51613        3.27061       -4.28805
C          0.97400        4.47620       -1.50334
H          0.44039        5.36132       -1.14567
C          1.44538        4.43570       -2.81581
H          1.27950        5.28502       -3.48191
