100
Cat709.ts34.5.log	Energy: -1545298.6751672
C          1.50758       -3.36063       -0.72815
H          1.28681       -3.81616       -1.69696
H          2.57108       -3.20671       -0.52304
C          0.62622       -3.62887        0.35399
H         -0.28284       -4.21352        0.18720
H          1.05699       -3.77049        1.35121
H          0.28368       -2.13762        1.00652
Rh         0.28911       -1.59846       -0.52467
C          1.90646        0.85766        1.72202
C          3.59059       -0.99573        0.41148
C          2.50351        1.22156       -1.01800
C         -1.60189        1.23551       -0.89999
C         -3.16900       -1.19005       -0.89766
C         -2.24560       -0.18873        1.58584
P         -1.67146       -0.44917       -0.14189
P          2.00382       -0.12192        0.13853
C         -0.07431       -1.57214       -2.36954
O         -0.33159       -1.55234       -3.49535
H          2.91222        1.24753        1.95323
H          1.65623        0.13771        2.51658
C          0.89199        1.99038        1.68659
H          1.03429        2.57573        0.76239
H         -0.12651        1.57256        1.63785
C          0.96875        2.95714        2.87182
H          1.98465        3.39637        2.87323
C         -0.03259        4.09072        2.68118
H          0.14588        4.62980        1.73781
H          0.02225        4.82132        3.50316
H         -1.06287        3.69727        2.65129
C          0.75327        2.26548        4.21277
H          0.81485        2.98645        5.04289
H          1.50435        1.48308        4.40047
H         -0.24106        1.79179        4.24905
C          3.80285       -1.70657        1.60006
H          3.06108       -1.66718        2.40222
C          4.54791       -1.11096       -0.60428
H          4.39757       -0.58586       -1.55078
C          4.94471       -2.48401        1.77399
H          5.08539       -3.02760        2.71274
C          5.68542       -1.89248       -0.42511
H          6.41659       -1.96521       -1.23557
C          5.91122       -2.58978        0.76776
C          7.15562       -3.40498        0.96514
H          7.47470       -3.88623        0.02884
H          7.99257       -2.77310        1.30751
H          7.00823       -4.19031        1.72049
C          3.54237        2.11388       -0.71200
H          4.12459        1.98106        0.20380
C          1.80466        1.40643       -2.21066
H          1.00755        0.70540       -2.46523
C          3.85101        3.16435       -1.56686
H          4.66525        3.84756       -1.30793
C          2.11649        2.46239       -3.06763
H          1.55323        2.58409       -3.99702
C          3.13743        3.36400       -2.75865
C          3.46177        4.51863       -3.66011
H          4.54357        4.58561       -3.85271
H          2.94710        4.43269       -4.62721
H          3.15582        5.47370       -3.20223
H         -1.41506        1.03538       -1.96899
H         -0.65673        1.65283       -0.52797
C         -2.74173        2.22278       -0.73163
H         -3.70181        1.73454       -0.97106
H         -2.80662        2.53568        0.32515
C         -2.59824        3.47132       -1.60885
H         -2.57993        3.13147       -2.66224
C         -3.80769        4.38192       -1.43253
H         -4.74761        3.85080       -1.65015
H         -3.75309        5.25784       -2.09748
H         -3.86773        4.75454       -0.39618
C         -1.30055        4.22704       -1.34025
H         -1.24087        5.13783       -1.95614
H         -0.40830        3.62210       -1.56211
H         -1.24208        4.53552       -0.28298
C         -3.58019       -0.87049       -2.19518
H         -3.05387       -0.10704       -2.77178
C         -3.86662       -2.19442       -0.21085
H         -3.56056       -2.46849        0.80231
C         -4.66045       -1.52793       -2.78209
H         -4.96221       -1.25754       -3.79781
C         -4.94258       -2.84438       -0.80107
H         -5.47139       -3.62166       -0.24157
C         -5.36219       -2.52477       -2.10027
C         -6.51728       -3.24423       -2.73257
H         -7.40971       -3.21511       -2.08783
H         -6.78494       -2.80320       -3.70295
H         -6.27723       -4.30647       -2.90272
C         -3.49935        0.37306        1.87020
H         -4.17554        0.63850        1.05562
C         -1.44232       -0.58066        2.65862
H         -0.47715       -1.04684        2.44421
C         -3.90901        0.56781        3.18465
H         -4.89068        1.00836        3.38053
C         -1.86079       -0.39558        3.97411
H         -1.21347       -0.71858        4.79423
C         -3.09466        0.19513        4.26263
C         -3.52508        0.43937        5.67862
H         -3.08487       -0.29616        6.36718
H         -3.20152        1.43832        6.01671
H         -4.61899        0.39859        5.78235
