92
Cat713.ts34.5.log	Energy: -1635434.4949451
C         -1.11891       -0.23561        3.95712
H         -0.71469        0.42959        4.72418
H         -2.20616       -0.18000        3.84593
C         -0.46615       -1.48542        3.73232
H          0.46447       -1.71234        4.25886
H         -1.08265       -2.37254        3.54849
H         -0.37227       -1.56677        2.09299
Rh         0.01345        0.00346        2.15048
C         -3.40539       -0.06341        1.05526
O         -1.94986        2.17995        0.52278
O         -1.47103        0.11045       -0.85492
C          1.70129        0.51606       -0.88910
O          3.17252       -0.54152        1.15838
O          1.41595       -2.03515        0.03053
P          1.58863       -0.48752        0.63206
P         -1.69565        0.54247        0.76395
C          0.94018        1.53636        2.80607
O          1.51218        2.46460        3.17040
H         -4.02775        0.17790        0.17852
H         -3.78808        0.54269        1.89175
C         -3.44635       -1.56234        1.37193
H         -2.54504       -2.05903        0.97805
H         -3.40388       -1.71056        2.46515
C         -4.67232       -2.28293        0.81030
H         -4.67881       -2.10315       -0.28048
C         -4.55150       -3.78490        1.03158
H         -3.63591       -4.18142        0.56597
H         -5.40879       -4.32402        0.59955
H         -4.51473       -4.02533        2.10763
C         -5.97104       -1.73765        1.39205
H         -6.84607       -2.24719        0.95964
H         -6.08789       -0.66014        1.19828
H         -6.00482       -1.88697        2.48475
C         -2.76989        2.68782       -0.44692
C         -4.09895        2.99494       -0.15053
H         -4.47192        2.82168        0.86039
C         -2.26155        2.92553       -1.72604
H         -1.22121        2.67502       -1.93456
C         -4.92238        3.52597       -1.14195
H         -5.96214        3.76582       -0.90683
C         -3.09086        3.45995       -2.70888
H         -2.69003        3.64295       -3.70870
C         -4.42423        3.75622       -2.42401
H         -5.07215        4.17318       -3.19804
C         -2.15498       -0.83271       -1.56574
C         -3.28008       -0.47526       -2.31151
H         -3.61554        0.56374       -2.30656
C         -1.68630       -2.14955       -1.57404
H         -0.79805       -2.39488       -0.98681
C         -3.94525       -1.44907       -3.05572
H         -4.82601       -1.16940       -3.63883
C         -2.36229       -3.11305       -2.31871
H         -1.99759       -4.14313       -2.32114
C         -3.49502       -2.76873       -3.05812
H         -4.02254       -3.52779       -3.63981
H          0.80951        0.22448       -1.46627
H          2.59354        0.21872       -1.45904
C          1.66637        2.01516       -0.61530
H          0.71846        2.25717       -0.10802
H          2.46834        2.29823        0.08752
C          1.80373        2.87546       -1.87281
H          1.03488        2.53692       -2.59474
C          1.52671        4.33616       -1.53669
H          0.52554        4.46600       -1.09720
H          1.59124        4.97463       -2.43150
H          2.26141        4.71143       -0.80517
C          3.17002        2.71507       -2.53183
H          3.25899        3.35750       -3.42163
H          3.36037        1.67977       -2.85253
H          3.97518        2.99270       -1.83126
C          4.22971        0.19107        0.68636
C          4.60672        1.34354        1.37954
H          4.03542        1.64084        2.26115
C          4.94365       -0.22010       -0.44064
H          4.65116       -1.13404       -0.95983
C          5.69038        2.09390        0.93046
H          5.97989        2.99704        1.47293
C          6.02527        0.54065       -0.88186
H          6.57957        0.21848       -1.76659
C          6.40052        1.69935       -0.20393
H          7.24810        2.29173       -0.55539
C          2.32619       -2.63361       -0.79975
C          3.37094       -3.37450       -0.24501
H          3.45501       -3.43300        0.84097
C          2.18636       -2.53048       -2.18472
H          1.35109       -1.96262       -2.59816
C          4.28848       -4.00140       -1.08464
H          5.10965       -4.57654       -0.65048
C          3.11209       -3.15969       -3.01548
H          3.00417       -3.07788       -4.09963
C          4.16661       -3.89181       -2.47029
H          4.89004       -4.38215       -3.12527
