102
Cat797.ts34.5.log	Energy: -1687153.5861359
C          2.25561        1.46254       -2.82391
H          2.23209        2.54631       -2.96318
H          3.25862        1.02825       -2.76896
C          1.18925        0.69682       -3.36354
H          0.36121        1.20454       -3.86719
H          1.42179       -0.28366       -3.79675
H          0.55855       -0.19831       -2.16255
Rh         0.98826        0.99715       -1.14176
C          2.24130       -2.34865       -0.87493
C          4.22585       -0.30340       -0.63320
C          2.49634       -0.83744        1.63244
C         -1.43527       -0.68412        0.78027
C         -1.46905        2.28871        0.90505
C         -2.60367        0.80505       -1.35887
P         -1.15000        0.87357       -0.21322
P          2.45682       -0.61596       -0.20469
C          1.33807        2.67560       -0.37412
O          1.57392        3.70876        0.07796
H          2.32784       -2.22869       -1.96451
H          3.07083       -2.99112       -0.54920
C          0.91880       -2.97999       -0.56553
C          0.63851       -3.50343        0.70410
H          1.38683       -3.44169        1.49639
C         -0.06978       -3.05851       -1.55168
H          0.14214       -2.65261       -2.54554
C         -0.59889       -4.08324        0.96436
H         -0.81406       -4.47802        1.95995
C         -1.31987       -3.64183       -1.30783
C         -2.35785       -3.69326       -2.39097
H         -2.63392       -2.68011       -2.72533
H         -1.98734       -4.23688       -3.27443
H         -3.27325       -4.19366       -2.04555
C         -1.57155       -4.15360       -0.03184
H         -2.54478       -4.59901        0.18838
C          4.82444       -1.00728       -1.69066
H          4.28215       -1.80775       -2.19415
C          4.95674        0.73906       -0.01288
C          4.40639        1.56308        1.11249
H          4.42307        1.00990        2.06438
H          3.36251        1.85052        0.93076
H          4.99542        2.48125        1.24262
C          6.11431       -0.71773       -2.12888
H          6.54734       -1.28727       -2.95459
C          6.25274        1.00785       -0.46699
H          6.81420        1.81237        0.01611
C          6.83791        0.29515       -1.50970
H          7.85098        0.53711       -1.83929
C          1.64401        0.01838        2.34083
H          1.05860        0.74101        1.76528
C          3.32349       -1.73194        2.34977
C          4.30832       -2.66323        1.70288
H          4.80844       -2.20153        0.84109
H          3.81827       -3.58595        1.34977
H          5.07940       -2.96729        2.42413
C          1.56120       -0.00741        3.72885
H          0.89477        0.68462        4.24930
C          3.22064       -1.74850        3.74780
H          3.85696       -2.43843        4.30924
C          2.35010       -0.90894        4.43724
H          2.30442       -0.94954        5.52828
H         -1.09256       -1.44119        0.06232
H         -0.68964       -0.68665        1.58671
C         -2.80092       -1.03565        1.27825
C         -3.16064       -0.88374        2.62393
H         -2.42314       -0.52912        3.34739
C         -3.75669       -1.54414        0.39219
H         -3.48052       -1.69413       -0.65323
C         -4.44938       -1.19307        3.04937
H         -4.71833       -1.06847        4.10120
C         -5.05828       -1.85050        0.79804
C         -6.05344       -2.35759       -0.20464
H         -5.70684       -3.29291       -0.67288
H         -7.03254       -2.55206        0.25519
H         -6.19312       -1.62713       -1.01785
C         -5.39796       -1.66068        2.14134
H         -6.41115       -1.89287        2.48070
C         -1.37484        2.10966        2.29018
H         -1.21133        1.11153        2.69487
C         -1.65890        3.59014        0.38604
C         -1.74195        3.86718       -1.08595
H         -2.72930        3.59782       -1.49423
H         -0.99730        3.27660       -1.64422
H         -1.56944        4.93283       -1.28977
C         -1.48834        3.18124        3.17059
H         -1.41553        3.01233        4.24764
C         -1.77212        4.65210        1.28984
H         -1.91492        5.66081        0.89272
C         -1.69496        4.46177        2.66657
H         -1.78487        5.31552        3.34226
C         -2.32983        0.25506       -2.61739
H         -1.29665       -0.00737       -2.84690
C         -3.93832        1.15640       -1.03783
C         -4.38470        1.73616        0.27314
H         -4.14909        2.80923        0.34397
H         -3.90767        1.24965        1.13142
H         -5.47187        1.62102        0.38143
C         -3.32642        0.03671       -3.56378
H         -3.07569       -0.40062       -4.53310
C         -4.92183        0.94816       -2.01671
H         -5.95307        1.22186       -1.77707
C         -4.63632        0.39438       -3.26052
H         -5.43752        0.24312       -3.98811
