98
Cat740.ts34.5.log	Energy: -1732186.3658736
C         -1.08350        0.55829       -3.35522
H         -0.65065        0.00410       -4.19238
H         -2.17009        0.47439       -3.25618
C         -0.44484        1.75550       -2.93349
H          0.49583        2.06842       -3.39528
H         -1.06968        2.59681       -2.61484
H         -0.35478        1.60166       -1.30228
Rh        -0.00155        0.05147       -1.56722
C         -2.12199        0.88307        1.15138
C         -3.46041       -0.65599       -0.88742
C         -1.78962       -1.93314        0.89877
C          1.94893       -0.29818        1.38627
C          3.49416        0.07530       -0.97659
C          2.08627        2.27995        0.15658
P          1.84617        0.49852       -0.26897
P         -1.80008       -0.39504       -0.12343
C          0.66306       -1.58050       -2.24334
O          1.08319       -2.57659       -2.64690
C         -1.74408        0.71887        2.48586
H         -1.29276       -0.22494        2.79744
C         -2.65890        2.12895        0.75722
O         -2.90380        2.27142       -0.56139
C         -3.59640        3.39599       -1.02251
H         -4.58672        3.48724       -0.54338
H         -3.73423        3.25497       -2.10177
H         -3.02817        4.32745       -0.85226
C         -1.93860        1.73238        3.42568
H         -1.63450        1.57680        4.46285
C         -2.90269        3.12704        1.70284
H         -3.35394        4.07360        1.40471
C         -2.53993        2.92370        3.03584
H         -2.72586        3.71418        3.76708
C         -3.50228       -1.46372       -2.02700
H         -2.56845       -1.85473       -2.44081
C         -4.65719       -0.15315       -0.36680
H         -4.63729        0.47021        0.53166
C         -4.72466       -1.76099       -2.62701
H         -4.75213       -2.39565       -3.51634
C         -5.88914       -0.43350       -0.96324
C         -7.16615        0.11374       -0.39185
H         -7.83245       -0.69670       -0.05483
H         -6.97265        0.76799        0.47013
H         -7.72377        0.69710       -1.14181
C         -5.90730       -1.24631       -2.10431
H         -6.86162       -1.47706       -2.58665
C         -2.82578       -2.20724        1.80279
H         -3.61937       -1.47462        1.96635
C         -0.80181       -2.89218        0.68303
H          0.00178       -2.67182       -0.02240
C         -2.85430       -3.42039        2.47955
H         -3.66335       -3.63266        3.18304
C         -0.83371       -4.13114        1.33802
C          0.22194       -5.16525        1.07597
H          0.67240       -5.03113        0.08263
H          1.03095       -5.10250        1.82311
H         -0.19051       -6.18340        1.13215
C         -1.86830       -4.37843        2.24289
H         -1.91174       -5.34055        2.76175
C          1.70965        0.37506        2.58489
H          1.48939        1.44406        2.56336
C          2.23954       -1.67677        1.43194
O          2.40402       -2.28449        0.23805
C          3.29148       -3.36412        0.11509
H          4.28722       -3.10207        0.51076
H          3.37118       -3.57215       -0.95933
H          2.92246       -4.26847        0.62487
C          1.76493       -0.29457        3.80808
H          1.57384        0.25036        4.73506
C          2.33358       -2.34138        2.65488
H          2.58387       -3.40273        2.68344
C          2.08511       -1.64850        3.83957
H          2.14489       -2.17845        4.79316
C          3.62835        0.00777       -2.36251
H          2.74614        0.17011       -2.98800
C          4.61545       -0.14995       -0.16773
H          4.51331       -0.09329        0.92012
C          4.86984       -0.28677       -2.92720
H          4.97137       -0.34469       -4.01375
C          5.86232       -0.45467       -0.71750
C          7.05645       -0.70012        0.15982
H          7.82768        0.07251        0.00910
H          6.78081       -0.69468        1.22377
H          7.52629       -1.67066       -0.06501
C          5.97374       -0.52009       -2.11410
H          6.94065       -0.76085       -2.56560
C          3.33433        2.90634        0.04733
H          4.20468        2.34336       -0.29099
C          0.98546        3.03568        0.57738
H          0.00397        2.55770        0.64832
C          3.46663        4.25732        0.35568
H          4.44180        4.74083        0.25752
C          1.10852        4.39254        0.90116
C         -0.08405        5.18225        1.35500
H         -0.89681        5.13348        0.61401
H         -0.49300        4.77973        2.29389
H          0.17156        6.23934        1.51349
C          2.36521        4.99411        0.78161
H          2.47744        6.05567        1.01905
