84
Cat720.ts34.5.log	Energy: -1162985.4435500
C         -1.93586       -2.69350       -1.57860
H         -1.88105       -3.71727       -1.19935
H         -2.95708       -2.32623       -1.72234
C         -0.91857       -2.25929       -2.48381
H         -0.08498       -2.92808       -2.71806
H         -1.21632       -1.64297       -3.34075
H         -0.44945       -0.83074       -1.91184
Rh        -0.61431       -1.47011       -0.42092
C         -2.34567        1.59922       -1.13825
C         -3.89998       -0.36105        0.28149
C         -1.90917        1.20759        1.65688
C          1.62679        0.79112        1.05680
C          2.69720       -1.86686        0.72780
C          2.37664       -0.16214       -1.61652
P          1.51996       -0.68084       -0.05619
P         -2.15527        0.23449        0.10106
C         -0.52564       -2.65583        1.03120
O         -0.44148       -3.35176        1.95093
H         -3.12826        2.31414       -0.83154
H         -2.70335        1.09712       -2.05256
C         -1.03062        2.31812       -1.40392
H         -0.77705        2.94467       -0.53135
H         -0.23199        1.55869       -1.48222
C         -0.98436        3.19194       -2.65967
H         -1.82929        3.90481       -2.61382
C          0.31074        3.99679       -2.68272
H          0.41194        4.62541       -1.78397
H          0.36451        4.65503       -3.56363
H          1.18528        3.32451       -2.71748
C         -1.12692        2.36631       -3.93387
H         -1.07730        3.00416       -4.82984
H         -2.08115        1.81998       -3.97245
H         -0.31538        1.62223       -4.00598
H         -4.17544       -0.75340       -0.71271
H         -3.84292       -1.24927        0.93337
C         -4.96609        0.60461        0.78056
H         -4.97712        1.51283        0.15417
H         -4.71234        0.94374        1.79893
C         -6.35533       -0.01696        0.79219
H         -6.66089       -0.32988       -0.21914
H         -6.38481       -0.91156        1.43456
H         -7.11276        0.68869        1.16677
H         -0.98191        1.78393        1.51371
H         -2.72073        1.94778        1.76687
C         -1.78314        0.34425        2.90312
H         -1.04217       -0.44961        2.71020
H         -2.73518       -0.18316        3.08767
C         -1.38959        1.13957        4.13810
H         -0.41402        1.63383        3.99667
H         -2.12594        1.92801        4.36267
H         -1.30995        0.49418        5.02612
H          1.12518        0.45611        1.98164
H          0.93951        1.51630        0.59676
C          2.95451        1.45364        1.39019
H          3.69034        0.69576        1.70704
H          3.37316        1.93140        0.48735
C          2.85115        2.51637        2.48999
H          2.44668        2.01781        3.39169
C          4.23248        3.06074        2.83451
H          4.92052        2.25448        3.13325
H          4.18493        3.78655        3.66100
H          4.67857        3.57462        1.96650
C          1.89838        3.64732        2.11585
H          1.87324        4.41920        2.90037
H          0.86638        3.29290        1.97355
H          2.21712        4.13482        1.17861
H          3.68436       -1.39288        0.86013
H          2.29461       -2.05485        1.73839
C          2.82848       -3.18294       -0.02788
H          3.26166       -2.99436       -1.02589
H          1.81802       -3.58324       -0.21301
C          3.67338       -4.20709        0.71286
H          4.69428       -3.83462        0.89688
H          3.22758       -4.45062        1.69041
H          3.75841       -5.14523        0.14345
H          2.03997       -0.88073       -2.38153
H          1.90960        0.79902       -1.89610
C          3.89600       -0.05076       -1.64765
H          4.34160       -1.03473       -1.42705
H          4.25103        0.62286       -0.85336
C          4.40410        0.44162       -2.99506
H          4.08955       -0.23056       -3.80945
H          4.01002        1.44438       -3.22718
H          5.50295        0.50148       -3.01669
