86
Cat737.ts34.5.log	Energy: -2786869.9867652
C         -0.80609        0.99531       -3.25151
H         -0.52517        0.37594       -4.10746
H         -1.87373        1.22367       -3.17706
C          0.13330        1.94417       -2.76507
H          1.13701        1.99316       -3.19671
H         -0.23416        2.91805       -2.42517
H          0.11262        1.71007       -1.13922
Rh         0.03064        0.13428       -1.46881
C         -1.86469        1.37029        1.25507
C         -3.51732        0.38498       -0.89771
C         -2.28354       -1.40423        0.83188
C          1.79557       -0.95232        1.45852
C          3.42271       -0.67257       -0.86442
C          2.47600        1.64610        0.49066
P          1.88891        0.00567       -0.10997
P         -1.87715        0.13404       -0.09949
C          0.25301       -1.57723       -2.23579
O          0.40362       -2.61797       -2.70893
C         -1.58146        1.01819        2.57728
H         -1.48084       -0.03743        2.83679
C         -1.94284        2.74369        0.92927
O         -2.14125        3.02576       -0.37294
C         -2.25265        4.35980       -0.78602
H         -3.10263        4.86731       -0.29825
H         -2.42742        4.33558       -1.86873
H         -1.32791        4.92685       -0.58144
C         -1.40408        1.98816        3.56499
H         -1.17684        1.68556        4.58909
C         -1.79513        3.71743        1.92066
H         -1.87459        4.77617        1.67293
C         -1.52366        3.33363        3.23557
H         -1.39926        4.10255        4.00169
C         -3.75915       -0.32956       -2.07682
H         -2.96700       -0.96016       -2.49108
C         -4.53307        1.19765       -0.38455
H         -4.37062        1.75960        0.53833
C         -4.98568       -0.24610       -2.72856
H         -5.17333       -0.80683       -3.64561
C         -5.76220        1.29899       -1.03051
H         -6.55497        1.93370       -0.63081
C         -5.98158        0.57470       -2.20126
Cl        -7.50854        0.69910       -3.01068
C         -3.43200       -1.49366        1.63249
H         -4.10029       -0.63431        1.72686
C         -1.45862       -2.52148        0.71148
H         -0.57105       -2.45668        0.08006
C         -3.74022       -2.66501        2.31210
H         -4.63188       -2.73537        2.93710
C         -1.75890       -3.70659        1.38172
H         -1.11688       -4.58353        1.29040
C         -2.89444       -3.76898        2.18222
Cl        -3.26779       -5.23454        3.02672
C          1.70569       -0.36347        2.72020
H          1.75664        0.72286        2.81022
C          1.73511       -2.35940        1.36620
O          1.78924       -2.85909        0.11682
C          1.90968       -4.23953       -0.09345
H          2.82346       -4.63813        0.37888
H          1.96463       -4.37916       -1.17949
H          1.03462       -4.79050        0.29117
C          1.55786       -1.14063        3.87021
H          1.48677       -0.65793        4.84703
C          1.61639       -3.14235        2.51529
H          1.58273       -4.22969        2.44286
C          1.51888       -2.52657        3.76326
H          1.41224       -3.14559        4.65708
C          3.55896       -0.63845       -2.25341
H          2.73143       -0.24739       -2.85265
C          4.46732       -1.19602       -0.09302
H          4.37477       -1.23243        0.99570
C          4.71376       -1.11279       -2.87115
H          4.81965       -1.09021       -3.95691
C          5.62363       -1.68033       -0.69548
H          6.43745       -2.09480       -0.09809
C          5.73953       -1.63413       -2.08576
Cl         7.17543       -2.23951       -2.84156
C          3.80647        2.06686        0.39268
H          4.56032        1.40984       -0.04408
C          1.53751        2.52659        1.04538
H          0.49125        2.22680        1.11711
C          4.19262        3.33064        0.83646
H          5.22963        3.65862        0.74830
C          1.91131        3.78217        1.50910
H          1.17117        4.45146        1.95006
C          3.24311        4.18071        1.39755
Cl         3.71664        5.75041        1.95642
