66
Cat788.ts34.5.log	Energy: -1296374.2306796
C          3.15604       -2.95498       -0.27991
H          3.93474       -3.05969        0.47963
H          2.42448       -3.76655       -0.31087
C          3.46922       -2.25117       -1.47348
H          4.44390       -1.76772       -1.58124
H          3.05728       -2.61256       -2.42088
H          2.18760       -1.16113       -1.68002
Rh         2.22470       -1.02377       -0.06202
C         -1.18663       -1.20987       -1.05979
O         -0.04654       -3.47105        0.08156
O         -0.75645       -1.45372        1.51547
C          0.56892        1.82537        1.05017
O          2.78105        2.30322       -0.31846
O          0.64360        1.52231       -1.54092
P          1.62419        1.13440       -0.27664
P          0.08264       -1.83172        0.13146
C          3.14833       -0.69698        1.56112
O          3.71181       -0.49380        2.54600
H         -0.98721       -0.12611       -1.10119
H         -0.85039       -1.61051       -2.02983
C         -2.64470       -1.47636       -0.83859
C         -3.34948       -2.35519       -1.67088
H         -2.82637       -2.86050       -2.48772
C         -3.34194       -0.82624        0.18481
H         -2.79678       -0.14723        0.84417
C         -4.70741       -2.58199       -1.46882
H         -5.24801       -3.26798       -2.12575
C         -4.70740       -1.03925        0.40092
C         -5.41462       -0.32033        1.51382
H         -5.00963       -0.61304        2.49584
H         -5.28799        0.77049        1.42699
H         -6.49197       -0.53707        1.51594
C         -5.38351       -1.93029       -0.43861
H         -6.45157       -2.10917       -0.28785
C         -1.23748       -4.18354        0.35521
H         -1.91874       -3.60597        0.99876
H         -1.76533       -4.43383       -0.57741
H         -0.96019       -5.11631        0.86857
C         -0.14184       -1.64424        2.76957
H          0.07158       -2.71021        2.95578
H          0.80406       -1.08266        2.84203
H         -0.84190       -1.28224        3.53514
H         -0.12618        1.01322        1.31186
H          1.24946        1.95545        1.90681
C         -0.17460        3.08171        0.71452
C          0.45949        4.32712        0.70979
H          1.52079        4.39187        0.95875
C         -1.52628        3.01118        0.36352
H         -2.02180        2.03586        0.35340
C         -0.25789        5.47022        0.36502
H          0.24155        6.44241        0.36072
C         -2.26128        4.14726        0.01797
C         -3.71950        4.04314       -0.32612
H         -3.97736        4.67975       -1.18592
H         -4.00171        3.00873       -0.57071
H         -4.35008        4.36896        0.51806
C         -1.60525        5.38403        0.02247
H         -2.15726        6.28890       -0.24736
C          4.06564        2.05324       -0.84443
H          4.29453        0.97313       -0.81756
H          4.13563        2.41554       -1.88345
H          4.80051        2.59375       -0.23086
C          1.00283        1.24222       -2.86883
H          1.78617        1.93363       -3.22231
H          1.36561        0.20413       -2.97869
H          0.10683        1.37830       -3.48995
