102
Cat796.ts34.5.log	Energy: -1687159.0518751
C          2.07595       -2.37023       -2.49932
H          2.15022       -2.14235       -3.56627
H          3.03856       -2.59440       -2.02577
C          0.90915       -3.06264       -2.04078
H          0.08384       -3.24892       -2.73463
H          1.03414       -3.88228       -1.32309
H          0.50868       -2.27468       -0.70308
Rh         0.84498       -0.91366       -1.53156
C          3.48635       -0.93261        1.15484
C          3.73299        0.99519       -0.81578
C          1.62965        1.32394        1.04953
C         -1.66760        1.48123       -1.33785
C         -2.59547       -1.24406       -1.34964
C         -1.47108       -0.27209        1.08468
P         -1.20506       -0.21874       -0.72784
P          2.37619        0.03461       -0.01748
C          0.82947        0.26276       -3.00520
O          0.81560        0.99458       -3.89735
H          4.22785       -1.37124        0.46733
H          4.02695       -0.21145        1.78698
C          2.85888       -2.01331        1.98016
C          2.82776       -1.93879        3.37827
H          3.27794       -1.08006        3.88350
C          2.30783       -3.14050        1.36323
H          2.36063       -3.21736        0.27568
C          2.24365       -2.95788        4.12595
H          2.23455       -2.89402        5.21694
C          1.69346       -4.16178        2.09470
C          1.05119       -5.31949        1.38743
H          1.67488       -5.67955        0.55535
H          0.86905       -6.16239        2.06880
H          0.07853       -5.02332        0.95938
C          1.66991       -4.05732        3.49013
H          1.20558       -4.85046        4.08259
C          4.45500        1.97209       -0.11592
H          4.17831        2.22029        0.91256
C          4.10544        0.70932       -2.13092
H          3.54593       -0.04681       -2.68614
C          5.51072        2.64368       -0.72152
H          6.05699        3.40593       -0.15812
C          5.16904        1.38084       -2.73157
H          5.44129        1.14044       -3.76311
C          5.88696        2.36218       -2.04230
C          7.00637        3.11531       -2.69911
H          7.39121        2.58061       -3.57902
H          6.66593        4.10782       -3.03871
H          7.84304        3.28077       -2.00387
C          1.28572        1.10296        2.38749
H          1.55121        0.16567        2.87504
C          1.25309        2.53982        0.46250
H          1.52313        2.74254       -0.57808
C          0.56510        2.05478        3.10322
H          0.29152        1.84478        4.14076
C          0.54221        3.49128        1.18745
H          0.26882        4.43606        0.70793
C          0.16511        3.25873        2.51578
C         -0.68098        4.24035        3.27069
H         -0.34966        4.34537        4.31469
H         -0.66426        5.23583        2.80393
H         -1.73129        3.90236        3.29769
H         -0.84403        2.12419       -0.99637
H         -1.54706        1.37367       -2.42733
C         -2.99501        2.10247       -1.02238
C         -4.18980        1.60019       -1.55071
H         -4.17117        0.73750       -2.21916
C         -3.05415        3.22746       -0.18879
H         -2.12123        3.62325        0.22314
C         -5.40474        2.19504       -1.21721
H         -6.33330        1.78879       -1.62595
C         -4.26358        3.83847        0.15129
C         -4.29013        5.05508        1.03140
H         -3.36742        5.14441        1.62264
H         -4.38701        5.97519        0.43125
H         -5.14252        5.03151        1.72683
C         -5.44612        3.29828       -0.36880
H         -6.40703        3.75268       -0.11125
C         -2.57924       -1.62518       -2.69799
H         -1.71407       -1.35924       -3.31333
C         -3.68757       -1.61735       -0.56201
H         -3.72236       -1.33243        0.49151
C         -3.64261       -2.33192       -3.24757
H         -3.61544       -2.60839       -4.30563
C         -4.74242       -2.34083       -1.11584
H         -5.58941       -2.62069       -0.48296
C         -4.74464       -2.70596       -2.46545
C         -5.87119       -3.50223       -3.05573
H         -5.60379       -4.56990       -3.12641
H         -6.78087       -3.43075       -2.44276
H         -6.11451       -3.16218       -4.07346
C         -2.31573        0.59095        1.79137
H         -2.86113        1.37828        1.27474
C         -0.81944       -1.28710        1.79656
H         -0.13753       -1.95853        1.27043
C         -2.47893        0.45290        3.16834
H         -3.13901        1.14716        3.69674
C         -1.00161       -1.43209        3.16687
H         -0.47114       -2.23275        3.68785
C         -1.82481       -0.55504        3.88269
C         -1.96769       -0.67595        5.37124
H         -2.88447       -0.18823        5.73232
H         -1.98775       -1.72865        5.68993
H         -1.11612       -0.19950        5.88629
