98
Cat767.ts34.5.log	Energy: -1732227.4745962
C          2.22200       -2.94673       -0.76969
H          2.13167       -3.45659       -1.73253
H          3.23106       -2.59812       -0.53458
C          1.35764       -3.34788        0.28487
H          0.58513       -4.09900        0.09711
H          1.75196       -3.36127        1.30704
H          0.69187       -1.94563        0.87938
Rh         0.67989       -1.43877       -0.66259
O          2.30156        0.76604        1.51143
C          3.51719        0.72225       -0.90951
C          1.09419        2.05620       -0.41767
O         -1.94112        0.39014       -1.36947
C         -2.70234       -2.12575       -0.71144
C         -2.03836       -0.22584        1.30735
P         -1.47212       -0.83670       -0.31324
P          1.89092        0.44161       -0.10707
C          0.39475       -1.49344       -2.53364
O          0.21162       -1.51597       -3.67029
C          2.73921       -0.21970        2.33980
C          3.63637       -1.19961        1.91511
H          4.02517       -1.15981        0.89573
C          2.26914       -0.22387        3.65598
H          1.57980        0.55899        3.97592
C          4.05043       -2.21760        2.78211
C          4.98608       -3.28291        2.28838
H          4.49432       -3.91840        1.53358
H          5.87384       -2.84291        1.80853
H          5.32599       -3.93322        3.10625
C          2.68866       -1.22471        4.52496
H          2.32097       -1.23322        5.55394
C          3.56421       -2.22154        4.09296
H          3.87867       -3.00846        4.78301
C          3.84249        0.01961       -2.06997
H          3.12886       -0.70400       -2.47296
C          4.44299        1.63237       -0.38200
H          4.19846        2.18143        0.53081
C          5.06710        0.23332       -2.70278
H          5.30557       -0.32098       -3.61473
C          5.66548        1.82881       -1.00970
H          6.38115        2.53882       -0.58473
C          5.99882        1.13617       -2.18447
C          7.32199        1.36555       -2.85384
H          7.43613        2.41899       -3.15567
H          8.15770        1.13339       -2.17459
H          7.43350        0.74316       -3.75251
C          0.56002        2.27446       -1.69439
H          0.61379        1.48346       -2.44658
C          0.98170        3.06262        0.54402
H          1.39019        2.90059        1.54256
C         -0.06217        3.47631       -2.00038
H         -0.48452        3.62236       -2.99814
C          0.34739        4.26525        0.22784
H          0.26425        5.04323        0.99252
C         -0.18725        4.49327       -1.04304
C         -0.92121        5.75893       -1.37152
H         -0.80078        6.51487       -0.58265
H         -0.56934        6.19367       -2.31968
H         -1.99987        5.56002       -1.48679
C         -2.95331        1.27748       -1.12529
C         -2.73257        2.34232       -0.25154
H         -1.75751        2.43305        0.22928
C         -4.18510        1.12845       -1.76204
H         -4.34231        0.29270       -2.44451
C         -3.74774        3.25875        0.02850
C         -3.52216        4.34079        1.04393
H         -3.74244        3.96565        2.05792
H         -2.47467        4.67449        1.04531
H         -4.16896        5.21185        0.86449
C         -5.19331        2.05615       -1.50533
H         -6.15988        1.95204       -2.00454
C         -4.98235        3.10728       -0.61547
H         -5.78686        3.81989       -0.41463
C         -3.14511       -2.28465       -2.03005
H         -2.81729       -1.57904       -2.79700
C         -3.09811       -3.06378        0.24810
H         -2.75116       -2.96831        1.28057
C         -3.98200       -3.34176       -2.36982
H         -4.31779       -3.44770       -3.40540
C         -3.93337       -4.12138       -0.10189
H         -4.23352       -4.84330        0.66291
C         -4.39597       -4.27786       -1.41324
C         -5.32213       -5.39895       -1.78310
H         -5.08894       -5.80123       -2.78016
H         -5.26709       -6.22414       -1.05888
H         -6.36909       -5.05277       -1.80969
C         -3.40287       -0.11487        1.61675
H         -4.15324       -0.49578        0.92059
C         -1.10072        0.27937        2.21007
H         -0.03712        0.20214        1.98023
C         -3.80912        0.49827        2.79397
H         -4.87701        0.58375        3.01323
C         -1.51637        0.89564        3.38802
H         -0.76896        1.29072        4.08142
C         -2.87351        1.02396        3.69693
C         -3.32736        1.71723        4.94721
H         -3.83016        2.66858        4.70687
H         -4.05118        1.10369        5.50533
H         -2.48399        1.94390        5.61402
