100
Cat710.ts34.5.log	Energy: -1545290.2808162
C         -1.11711       -2.77478       -1.65720
H         -0.59808       -3.69201       -1.36730
H         -2.20991       -2.81910       -1.63393
C         -0.48651       -1.87980       -2.54372
H          0.51325       -2.09952       -2.93221
H         -1.11841       -1.30557       -3.23073
H         -0.22271       -0.41550       -1.82433
Rh        -0.32086       -1.17296       -0.39821
C         -2.05991        1.97532       -0.86783
C         -3.58583       -0.45015       -1.11389
C         -2.81827        0.61896        1.52428
C          2.09716        1.19739        0.83743
C          2.65065       -1.64950        1.17527
C          3.08109       -0.26055       -1.34428
P          1.84600       -0.45626        0.02689
P         -2.17847        0.25378       -0.16942
C         -0.36189       -2.25242        1.13552
O         -0.39674       -2.92340        2.07057
H         -3.06741        2.38431       -1.04894
H         -1.57106        1.86771       -1.84839
C         -1.27189        2.92099        0.02380
H         -1.73507        2.94139        1.02350
H         -0.25655        2.51992        0.17843
C         -1.17781        4.35991       -0.49077
H         -2.21233        4.73468       -0.60869
C         -0.47842        5.23660        0.54258
H         -0.99314        5.19885        1.51510
H         -0.44046        6.28861        0.21988
H          0.55954        4.90045        0.70258
C         -0.48773        4.46428       -1.84593
H         -0.44067        5.51015       -2.18645
H         -1.00822        3.88747       -2.62518
H          0.54685        4.08882       -1.78779
C         -3.86022        0.03577       -2.40132
H         -3.31708        0.90155       -2.78389
C         -4.28635       -1.58981       -0.64981
C         -4.02410       -2.19736        0.69520
H         -4.39958       -1.56386        1.51385
H         -2.94439       -2.32125        0.86658
H         -4.50434       -3.18178        0.77935
C         -4.81996       -0.55824       -3.21668
H         -5.01219       -0.15406       -4.21348
C         -5.25363       -2.16369       -1.48282
H         -5.79941       -3.03903       -1.11952
C         -5.52940       -1.66130       -2.75193
H         -6.28841       -2.13749       -3.37688
C         -1.90104        0.40163        2.55992
H         -0.92292       -0.01092        2.29918
C         -4.09087        1.15639        1.82837
C         -5.15850        1.41295        0.80337
H         -5.62867        0.47454        0.46996
H         -4.76982        1.89600       -0.10172
H         -5.94634        2.05394        1.22282
C         -2.20885        0.69523        3.88518
H         -1.47255        0.51242        4.67107
C         -4.38210        1.43820        3.16955
H         -5.36542        1.84969        3.41419
C         -3.46240        1.21442        4.19098
H         -3.72924        1.44868        5.22448
H          1.46795        1.21329        1.74273
H          1.59129        1.87707        0.13620
C          3.51189        1.69510        1.10676
H          3.91082        1.21980        2.01624
H          4.18296        1.38139        0.28949
C          3.60733        3.21886        1.24796
H          2.80169        3.54873        1.93171
C          4.94182        3.61687        1.86724
H          5.07424        3.16681        2.86344
H          5.02693        4.70939        1.97567
H          5.77980        3.27856        1.23513
C          3.40822        3.91809       -0.09287
H          3.42197        5.01327        0.01900
H          2.45096        3.65055       -0.56470
H          4.20976        3.63907       -0.79680
C          2.86135       -1.27636        2.50985
H          2.64775       -0.25577        2.82828
C          2.87982       -2.99613        0.79753
C          2.60832       -3.50499       -0.58653
H          3.41803       -3.24906       -1.28764
H          1.68449       -3.05132       -0.98066
H          2.49513       -4.59796       -0.58393
C          3.32127       -2.18436        3.45911
H          3.47148       -1.86157        4.49193
C          3.35342       -3.88768        1.76618
H          3.53023       -4.92654        1.47407
C          3.58105       -3.49769        3.08248
H          3.94355       -4.22375        3.81390
C          4.34889       -0.84962       -1.21510
H          4.57906       -1.42233       -0.31431
C          2.81849        0.53784       -2.47971
C          1.53526        1.28430       -2.71795
H          0.95103        1.44613       -1.80643
H          0.88298        0.73133       -3.41375
H          1.74443        2.26215       -3.17581
C          5.32862       -0.70831       -2.19161
H          6.30347       -1.18266       -2.05639
C          3.82109        0.66902       -3.45167
H          3.61609        1.28935       -4.32906
C          5.05920        0.05076       -3.32714
H          5.81558        0.17599       -4.10560
