110
Cat786.ts34.5.log	Energy: -1502048.7116281
C          1.60611        0.35710       -3.42925
H          1.66961        1.36510       -3.84736
H          2.53799       -0.21293       -3.50149
C          0.36770       -0.34448       -3.55434
H         -0.49500        0.16681       -3.99001
H          0.39887       -1.40994       -3.81417
H          0.09110       -0.94544       -2.07726
Rh         0.68367        0.45540       -1.50129
C          2.60686       -2.47479       -0.39278
C          4.10398       -0.09174       -0.98338
C          2.59883       -0.31113        1.46588
C         -0.86492       -0.31827        1.58469
C         -1.84186        2.07592        0.34637
C         -2.63596       -0.53214       -0.63960
P         -1.15002        0.42532       -0.10170
P          2.43943       -0.61006       -0.35323
C          0.94118        2.30959       -1.31428
O          1.09361        3.44458       -1.15785
H          2.79337       -2.72998       -1.44800
H          3.48936       -2.78186        0.19019
C          1.37518       -3.16281        0.10811
C          1.24434       -3.52422        1.45527
H          2.07534       -3.35163        2.14409
C          0.29781       -3.40795       -0.75156
H          0.39417       -3.13745       -1.80590
C          0.06417       -4.09954        1.92108
H         -0.02974       -4.36923        2.97563
C         -0.89153       -3.99172       -0.30528
C         -2.00888       -4.27888       -1.26653
H         -2.01147       -3.56729       -2.10506
H         -1.90902       -5.29009       -1.69519
H         -2.99084       -4.23055       -0.77311
C         -0.99820       -4.32913        1.04938
H         -1.91965       -4.78568        1.42182
H          4.14438       -0.43986       -2.02941
H          4.05202        1.00817       -1.05075
C          5.35419       -0.52469       -0.23314
H          5.33718       -0.11628        0.79193
H          5.37442       -1.62299       -0.12063
C          6.63859       -0.07505       -0.91836
H          6.61825        1.02287       -1.04324
H          6.67068       -0.48954       -1.94253
C          7.90267       -0.47592       -0.17075
H          7.86470       -0.05980        0.85176
H          7.91566       -1.57330       -0.04469
C          9.18070       -0.02481       -0.85922
H         10.07597       -0.32819       -0.29561
H          9.21064        1.07148       -0.96638
H          9.26272       -0.45477       -1.87052
H          1.78783       -0.88920        1.93468
H          3.54253       -0.74305        1.83979
C          2.47029        1.15684        1.84238
H          3.35405        1.71883        1.49200
H          1.61882        1.58560        1.28557
C          2.26997        1.38902        3.33346
H          3.15227        1.02946        3.89341
H          1.42540        0.76741        3.68584
C          1.99496        2.84405        3.68588
H          2.84327        3.46698        3.35189
H          1.12529        3.19404        3.10077
C          1.73905        3.06909        5.16708
H          1.54166        4.12851        5.39034
H          2.60351        2.75646        5.77482
H          0.86881        2.48765        5.51308
H         -0.48154       -1.33083        1.38532
H         -0.03799        0.26668        2.00832
C         -2.01888       -0.35295        2.53619
C         -2.24506        0.70084        3.43168
H         -1.55351        1.54783        3.45353
C         -2.90263       -1.43807        2.55196
H         -2.71240       -2.27901        1.87990
C         -3.33346        0.66753        4.29954
H         -3.49592        1.49168        4.99867
C         -4.00344       -1.48650        3.41213
C         -4.94851       -2.65297        3.37508
H         -5.74628       -2.49033        2.63087
H         -4.42934       -3.58210        3.09697
H         -5.43658       -2.81078        4.34773
C         -4.21026       -0.41501        4.28837
H         -5.06011       -0.43548        4.97618
H         -2.61578        1.94589        1.12055
H         -1.00416        2.62000        0.81750
C         -2.38386        2.88196       -0.82685
H         -1.70815        2.77363       -1.69273
H         -3.35552        2.46388       -1.14224
C         -2.55215        4.35928       -0.50234
H         -1.56727        4.77459       -0.22259
H         -3.19581        4.47313        0.38940
C         -3.13063        5.16970       -1.65340
H         -2.48427        5.04293       -2.53972
H         -4.11224        4.74916       -1.93650
C         -3.27967        6.64877       -1.33592
H         -3.69755        7.20855       -2.18653
H         -2.30696        7.10163       -1.08513
H         -3.94711        6.80721       -0.47327
H         -2.41590       -1.58354       -0.39229
H         -3.47991       -0.23109        0.00444
C         -3.00610       -0.42603       -2.11055
H         -3.08522        0.63063       -2.41464
H         -2.18521       -0.84262       -2.71499
C         -4.30480       -1.14689       -2.44372
H         -5.13268       -0.70213       -1.86167
H         -4.23731       -2.19758       -2.10679
C         -4.65288       -1.11474       -3.92519
H         -4.71325       -0.06369       -4.25901
H         -3.82138       -1.56035       -4.49993
C         -5.94959       -1.83424       -4.25878
H         -6.17271       -1.79484       -5.33578
H         -6.80354       -1.38583       -3.72575
H         -5.90330       -2.89615       -3.96741
