86
Cat787.ts34.5.log	Energy: -1304828.8902783
C         -3.72621       -2.24480       -0.48127
H         -3.94894       -3.11461        0.14270
H         -4.50404       -1.47503       -0.46407
C         -3.00096       -2.45812       -1.69173
H         -2.63004       -3.45822       -1.93508
H         -3.30629       -1.89838       -2.58411
H         -1.84554       -1.32339       -1.67064
Rh        -1.72129       -1.61116       -0.07731
C         -1.10573        1.65561       -1.26027
C         -3.81379        1.24180       -0.13568
C         -1.42511        1.60454        1.68460
C          1.44833       -0.75459        0.91240
C          1.11783       -3.60267        0.15132
C          1.35912       -1.41802       -1.96727
P          0.58379       -1.87023       -0.32022
P         -2.02346        0.74846        0.12052
C         -1.69646       -2.50798        1.56763
O         -1.67605       -3.06805        2.57969
H         -0.31625        0.94372       -1.53860
H         -1.80596        1.66906       -2.11005
C         -0.48969        3.00344       -1.03288
C         -1.08087        4.19073       -1.47651
H         -2.02154        4.15712       -2.02933
C          0.73732        3.09491       -0.35976
H          1.23421        2.17805       -0.03380
C         -0.47661        5.42063       -1.21937
H         -0.95178        6.33950       -1.57203
C          1.35704        4.31535       -0.08694
C          2.66236        4.36706        0.65382
H          3.05120        3.35921        0.85817
H          3.42542        4.91851        0.08206
H          2.54888        4.88488        1.61978
C          0.72585        5.48775       -0.52229
H          1.18853        6.45840       -0.32329
H         -4.08809        0.55913       -0.96087
C         -4.63909        0.82806        1.07986
H         -5.71197        0.81833        0.82879
H         -4.35980       -0.17673        1.43084
H         -4.50559        1.53061        1.91589
C         -4.14465        2.65477       -0.59785
H         -3.66903        2.89391       -1.55849
H         -5.23343        2.74756       -0.74803
H         -3.84448        3.42221        0.12747
H         -0.33940        1.67044        1.49783
C         -1.91822        3.02504        1.94295
H         -1.37313        3.45174        2.80096
H         -1.75798        3.69310        1.08699
H         -2.98711        3.04107        2.20183
C         -1.61101        0.72370        2.91476
H         -1.18619       -0.27634        2.76176
H         -1.11553        1.18554        3.78417
H         -2.67291        0.59252        3.17019
H          0.88698        0.18332        0.79363
H          1.12537       -1.15876        1.88482
C          2.91812       -0.45260        0.92930
C          3.75691       -0.99418        1.91158
H          3.33828       -1.66355        2.66780
C          3.47871        0.43714        0.00485
H          2.83975        0.88884       -0.75888
C          5.11132       -0.67312        1.94205
H          5.75236       -1.10079        2.71685
C          4.83623        0.77194        0.01714
C          5.39573        1.70426       -1.01802
H          4.69115        2.51720       -1.24919
H          6.34313        2.15373       -0.68842
H          5.59466        1.16924       -1.96167
C          5.65079        0.20039        1.00041
H          6.71417        0.45204        1.03484
H          0.65680       -3.66109        1.15370
C          0.40813       -4.62528       -0.73022
H          0.53762       -5.63843       -0.31734
H         -0.66825       -4.40729       -0.79251
H          0.82304       -4.63191       -1.75097
C          2.59859       -3.93557        0.30645
H          3.16457       -3.15505        0.82937
H          2.69837       -4.86625        0.88890
H          3.08638       -4.11030       -0.66117
H          1.39882       -0.31522       -1.89939
C          2.77651       -1.92947       -2.21108
H          3.21278       -1.40677       -3.07814
H          3.44762       -1.77578       -1.35766
H          2.76639       -3.00222       -2.45393
C          0.46542       -1.76688       -3.15272
H         -0.51879       -1.28678       -3.07677
H          0.94155       -1.43378       -4.08892
H          0.30002       -2.85229       -3.23045
