106
Cat779.ts34.5.log	Energy: -1547115.1841878
C          1.22369       -3.79802        1.32893
H          1.12790       -4.68933        0.70338
H          2.25322       -3.55515        1.61064
C          0.17873       -3.51139        2.25916
H         -0.72427       -4.12777        2.26435
H          0.45181       -3.15002        3.25680
H         -0.06759       -1.90032        2.04705
Rh         0.09387       -2.19741        0.46355
O          1.54185        0.64124        1.44850
C          3.51845       -1.04526        0.68197
C          1.89690        0.22708       -1.30566
O         -1.27605        0.56105       -0.70386
C         -3.10097       -1.45698       -0.83229
C         -2.51764       -0.13788        1.63569
P         -1.68452       -0.84374        0.16055
P          1.76678       -0.60832        0.32780
C         -0.17525       -3.07887       -1.19143
O         -0.35514       -3.56899       -2.22029
C          1.84645        1.95627        1.28989
C          1.02080        2.77142        0.50998
H          0.15650        2.31720        0.02507
C          2.95446        2.49880        1.94221
H          3.57536        1.85259        2.56535
C          1.31163        4.12474        0.33001
C          0.45027        4.97664       -0.55738
H          0.96823        5.20134       -1.50459
H         -0.49244        4.47009       -0.80883
H          0.21270        5.94128       -0.08314
C          3.24174        3.85288        1.77628
H          4.10965        4.28489        2.28090
C          2.43792        4.65809        0.97240
H          2.68120        5.71646        0.84650
H          3.53076       -1.44443        1.71075
H          4.12608       -0.12612        0.68348
C          4.04792       -2.08281       -0.30062
H          3.27795       -2.86051       -0.44656
H          4.19510       -1.61591       -1.29111
C          5.35570       -2.75495        0.12326
H          5.17812       -3.22389        1.11002
C          5.72509       -3.85988       -0.85921
H          4.91815       -4.60359       -0.94924
H          6.63911       -4.38827       -0.54655
H          5.90834       -3.44472       -1.86448
C          6.49539       -1.75433        0.27718
H          7.42904       -2.25689        0.57402
H          6.27488       -0.99021        1.03766
H          6.68686       -1.23218       -0.67575
H          0.91830        0.71346       -1.44204
H          1.88602       -0.62035       -2.01147
C          3.05093        1.18482       -1.59059
H          3.31075        1.75808       -0.68879
H          3.95892        0.61425       -1.85627
C          2.74215        2.18513       -2.70759
H          1.80771        2.70295       -2.41996
C          3.84109        3.23556       -2.80392
H          3.96461        3.76672       -1.84688
H          3.61661        3.98289       -3.58129
H          4.80921        2.77239       -3.05904
C          2.50435        1.49917       -4.04759
H          2.26548        2.23210       -4.83396
H          1.67026        0.78270       -3.99950
H          3.40316        0.94625       -4.36975
C         -2.14954        1.47543       -1.21624
C         -2.61272        2.52841       -0.42663
H         -2.29974        2.58466        0.61694
C         -2.51108        1.39699       -2.56402
H         -2.12434        0.57651       -3.17113
C         -3.44994        3.51459       -0.96213
C         -3.90787        4.65595       -0.10119
H         -4.27424        4.30079        0.87396
H         -3.07648        5.35141        0.10128
H         -4.71205        5.22892       -0.58315
C         -3.34708        2.37110       -3.09986
H         -3.63510        2.31493       -4.15242
C         -3.81634        3.41969       -2.30813
H         -4.47180        4.17855       -2.74280
H         -2.68460       -1.68777       -1.82776
H         -3.83046       -0.64191       -0.96480
C         -3.74096       -2.70456       -0.23612
H         -2.93874       -3.38874        0.09174
H         -4.30984       -2.43688        0.67304
C         -4.66714       -3.45297       -1.19761
H         -4.05825       -3.73485       -2.07728
C         -5.17455       -4.73577       -0.55014
H         -4.34140       -5.37873       -0.22652
H         -5.79902       -5.31726       -1.24594
H         -5.78811       -4.51101        0.33854
C         -5.82511       -2.58781       -1.68220
H         -6.48287       -3.15060       -2.36260
H         -5.47764       -1.69478       -2.22342
H         -6.44038       -2.24611       -0.83235
H         -2.97179       -0.99893        2.15607
H         -3.34687        0.49693        1.28177
C         -1.57555        0.60935        2.56668
H         -0.77497       -0.07968        2.87940
H         -1.05057        1.40649        2.01350
C         -2.23373        1.21667        3.80661
H         -2.79647        0.41193        4.31713
C         -1.16124        1.72512        4.76361
H         -0.47865        0.91638        5.06651
H         -1.60341        2.15709        5.67491
H         -0.55078        2.50698        4.28180
C         -3.21712        2.33055        3.46095
H         -3.70482        2.72578        4.36551
H         -4.01287        1.99158        2.77974
H         -2.69337        3.17221        2.97627
