86
Cat734.ts34.5.log	Energy: -1633579.1080671
C         -0.95342        0.73909       -3.30073
H         -0.53072        0.19252       -4.14799
H         -2.04646        0.73624       -3.24720
C         -0.24416        1.86388       -2.79916
H          0.73435        2.12462       -3.21250
H         -0.81541        2.73742       -2.46778
H         -0.23270        1.63231       -1.17659
Rh         0.01573        0.07216       -1.50122
C         -2.07193        0.89966        1.23349
C         -3.51835       -0.34603       -0.93745
C         -1.97802       -1.89805        0.78142
C          1.96981       -0.57480        1.43277
C          3.50837       -0.03058       -0.90453
C          2.11857        2.08818        0.40140
P          1.86997        0.34875       -0.15661
P         -1.85961       -0.30199       -0.13675
C          0.57259       -1.57180       -2.24036
O          0.92339       -2.57214       -2.69575
C         -1.73104        0.58509        2.55130
H         -1.43762       -0.43804        2.79390
C         -2.40303        2.23982        0.92992
O         -2.64353        2.50426       -0.36933
C         -3.00016        3.80032       -0.75893
H         -3.93140        4.13199       -0.26771
H         -3.16481        3.76425       -1.84301
H         -2.19776        4.52611       -0.53891
C         -1.74018        1.55427        3.55563
H         -1.46151        1.28170        4.57555
C         -2.44501        3.20662        1.93795
H         -2.72023        4.23580        1.70634
C         -2.10994        2.85860        3.24814
H         -2.13420        3.62408        4.02739
C         -3.62144       -1.09401       -2.11661
C         -4.66369        0.27273       -0.42575
C         -5.98198       -0.60257       -2.25413
C         -5.88682        0.14701       -1.08229
C         -4.84581       -1.22737       -2.76733
H         -2.72509       -1.57222       -2.52268
H         -4.91097       -1.81818       -3.68432
H         -6.94180       -0.69983       -2.76730
H         -6.77414        0.63600       -0.67185
H         -4.60338        0.85227        0.49861
C         -0.93845       -2.82328        0.69426
C         -3.11278       -2.21489        1.54306
C         -2.14913       -4.35091        2.12363
C         -3.19596       -3.43046        2.21301
C         -1.02492       -4.04600        1.36279
H         -0.06288       -2.57466        0.09252
H         -0.20669       -4.76592        1.28687
H         -2.21616       -5.30872        2.64558
H         -4.08494       -3.66623        2.80324
H         -3.94007       -1.50389        1.60731
C          1.78062        0.01009        2.68490
H          1.62520        1.08791        2.75503
C          2.17715       -1.96941        1.36621
O          2.31972       -2.47315        0.12574
C          2.70589       -3.80600       -0.06175
H          3.68310       -4.00950        0.40852
H          2.78026       -3.95216       -1.14584
H          1.95768       -4.51025        0.34037
C          1.79267       -0.75866        3.85020
H          1.63918       -0.27888        4.81906
C          2.21687       -2.73880        2.52973
H          2.38806       -3.81415        2.47527
C          2.01520       -2.12867        3.76819
H          2.03506       -2.73916        4.67408
C          3.63108       -0.00597       -2.29520
C          4.63635       -0.30832       -0.12257
C          5.98152       -0.53316       -2.11745
C          5.86515       -0.56177       -0.72667
C          4.86339       -0.25228       -2.89997
H          2.73841        0.19301       -2.89558
H          4.94670       -0.23336       -3.98936
H          6.94604       -0.73409       -2.59038
H          6.73873       -0.78334       -0.10830
H          4.54857       -0.32990        0.96698
C          1.03309        2.76277        0.97748
C          3.32756        2.77399        0.24203
C          2.36615        4.75925        1.23755
C          3.44585        4.10274        0.65203
C          1.15784        4.08160        1.40324
H          0.07851        2.24772        1.09321
H          0.29920        4.57803        1.86181
H          2.46429        5.79838        1.56125
H          4.39469        4.62623        0.51068
H          4.18434        2.27415       -0.21279
