110
Cat748.ts34.5.log	Energy: -1830785.4748546
C         -1.14539        1.94367       -3.01199
H         -0.83574        1.58924       -3.99876
H         -2.21596        2.12100       -2.89661
C         -0.23213        2.72548       -2.25767
H          0.77401        2.91830       -2.64022
H         -0.62559        3.54519       -1.64579
H         -0.17800        2.01789       -0.74007
Rh        -0.30637        0.62234       -1.52397
C         -2.91993        1.90793        0.40272
C         -3.69991       -0.71278       -0.68775
C         -1.76754       -0.55787        1.42258
C          1.65404       -1.72866        0.29410
C          3.02394        0.34324       -1.32885
C          1.74440        0.92409        1.39167
P          1.52462        0.03434       -0.24287
P         -2.21778        0.29874       -0.15712
C          0.01937       -0.70904       -2.81840
O          0.27197       -1.48397       -3.63671
C         -2.48597        2.49312        1.59822
H         -1.86812        1.91133        2.28474
C         -3.72843        2.69091       -0.45037
O         -4.13190        2.10778       -1.60377
C         -4.91380        2.83361       -2.51125
H         -5.87856        3.13611       -2.06848
H         -5.10470        2.16519       -3.36044
H         -4.38635        3.73208       -2.87588
C         -2.82316        3.79902        1.94955
H         -2.46358        4.21887        2.89102
C         -4.07714        3.99886       -0.10129
H         -4.70463        4.59654       -0.76250
C         -3.62019        4.55185        1.09457
H         -3.89724        5.57651        1.35272
H         -4.39461       -0.78935        0.16046
H         -4.19282       -0.13720       -1.47785
C         -3.27904       -2.07385       -1.15439
C         -3.18161       -3.12344       -0.23230
H         -3.45886       -2.93924        0.80903
C         -2.96229       -2.31331       -2.50806
C         -3.14876       -1.24703       -3.54755
H         -2.66317       -0.30711       -3.25002
H         -4.22124       -1.03671       -3.70120
H         -2.72548       -1.55894       -4.51177
C         -2.75532       -4.39093       -0.62052
H         -2.69677       -5.19535        0.11698
C         -2.51427       -3.58607       -2.87692
H         -2.24975       -3.76738       -3.92188
C         -2.40586       -4.61979       -1.94932
H         -2.05859       -5.60532       -2.26974
H         -1.21793       -1.43707        1.05747
H         -0.98033        0.06234        1.88174
C         -2.76707       -0.98517        2.46552
C         -3.98558       -0.32743        2.66438
H         -4.23599        0.53310        2.04269
C         -2.44651       -2.09013        3.28806
C         -1.14944       -2.82893        3.12674
H         -0.27760       -2.16158        3.21781
H         -1.06812       -3.30283        2.13476
H         -1.04989       -3.61887        3.88366
C         -4.88765       -0.74568        3.64072
H         -5.83264       -0.21278        3.76966
C         -3.36366       -2.49698        4.26217
H         -3.11379       -3.35353        4.89465
C         -4.57792       -1.83881        4.44299
H         -5.27678       -2.18012        5.21041
C          0.71492       -2.62670       -0.22417
H         -0.07223       -2.23516       -0.87427
C          2.65327       -2.24136        1.15711
O          3.56466       -1.37610        1.64654
C          4.67572       -1.86049        2.35198
H          4.38149       -2.32355        3.30965
H          5.31583       -0.99286        2.55294
H          5.24520       -2.58533        1.74822
C          0.75336       -3.98957        0.06760
H          0.00550       -4.65272       -0.36791
C          2.68328       -3.60529        1.46643
H          3.45182       -3.99993        2.13056
C          1.74040       -4.47252        0.91737
H          1.78639       -5.53617        1.16418
H          2.63930       -0.01395       -2.29580
H          3.04208        1.43956       -1.41447
C          4.38711       -0.23946       -1.09903
C          4.55569       -1.62802       -1.19383
H          3.68739       -2.25024       -1.42203
C          5.52219        0.57200       -0.89206
C          5.45841        2.07049       -0.98349
H          4.61958        2.50825       -0.42672
H          5.34202        2.38558       -2.03422
H          6.38471        2.52615       -0.60638
C          5.79631       -2.22673       -1.00623
H          5.89489       -3.31230       -1.08451
C          6.76243       -0.04833       -0.68680
H          7.64067        0.58041       -0.51423
C          6.90705       -1.43151       -0.72813
H          7.88928       -1.88422       -0.57164
H          0.76432        0.77484        1.86811
H          2.47794        0.36412        1.97697
C          2.07377        2.38622        1.36729
C          1.08241        3.33095        1.07145
H          0.06381        2.98740        0.88246
C          3.36681        2.84030        1.70573
C          4.43468        1.89053        2.16912
H          4.56138        1.03633        1.48956
H          4.18391        1.47818        3.16115
H          5.40300        2.40210        2.25773
C          1.35907        4.69409        1.03704
H          0.56185        5.40325        0.80166
C          3.63090        4.21491        1.66320
H          4.63502        4.56476        1.91907
C          2.64812        5.13911        1.31873
H          2.88531        6.20544        1.29334
