90
Cat790.ts34.5.log	Energy: -1493599.3374788
C         -2.32570       -3.55531        0.17036
H         -2.26574       -4.21176        1.04217
H         -3.29886       -3.08649        0.00404
C         -1.48994       -3.84375       -0.94445
H         -0.76607       -4.66164       -0.88279
H         -1.89596       -3.70036       -1.95131
H         -0.75059       -2.40627       -1.33312
Rh        -0.72344       -2.11947        0.27011
C         -1.77839        0.75412       -1.59267
O         -3.68350       -0.67139       -0.19825
O         -2.08880        0.92038        1.04121
C          2.14072       -0.50909        1.45335
O          2.56265       -2.14949       -0.56028
O          1.34441        0.04960       -1.09056
P          1.30865       -1.21432       -0.03303
P         -2.08522       -0.29031       -0.07893
C         -0.39091       -2.56867        2.07788
O         -0.21063       -2.84452        3.18306
H         -0.78056        0.41663       -1.90625
H         -2.49717        0.41882       -2.35459
C         -1.77398        2.24143       -1.42950
C         -2.82832        3.04716       -1.86956
H         -3.68692        2.59307       -2.37170
C         -0.67612        2.85392       -0.81359
H          0.15487        2.22350       -0.48640
C         -2.78169        4.42810       -1.68467
H         -3.60700        5.05108       -2.03883
C         -0.61417        4.23463       -0.61782
C          0.56776        4.84562        0.07753
H          1.48742        4.27958       -0.13023
H          0.72708        5.88993       -0.22821
H          0.42465        4.84362        1.17188
C         -1.68592        5.01938       -1.06135
H         -1.65588        6.10390       -0.92400
C         -4.72016        0.30486       -0.35064
H         -4.27070        1.31213       -0.31994
C         -5.67806        0.16406        0.81483
H         -5.15683        0.34115        1.76442
H         -6.10274       -0.85145        0.83759
H         -6.50394        0.88643        0.72977
C         -5.40121        0.08477       -1.68776
H         -4.69128        0.18460       -2.52136
H         -5.83434       -0.92643       -1.73079
H         -6.21022        0.81576       -1.83758
C         -1.60754        0.73965        2.36827
H         -0.77107        0.01899        2.32658
C         -2.68524        0.15585        3.25894
H         -3.03620       -0.80488        2.85392
H         -3.54287        0.84246        3.33325
H         -2.29386       -0.02310        4.27159
C         -1.09444        2.08479        2.83732
H         -0.31070        2.45230        2.15913
H         -1.90728        2.82691        2.84195
H         -0.67993        2.00918        3.85372
H          1.34276       -0.00980        2.02125
H          2.45079       -1.38803        2.04177
C          3.27467        0.43732        1.20710
C          4.48718        0.00082        0.66174
H          4.61256       -1.05482        0.41395
C          3.12680        1.79585        1.51275
H          2.18220        2.14108        1.94381
C          5.51217        0.91301        0.42152
H          6.45556        0.56628       -0.00786
C          4.14978        2.72215        1.28886
C          3.97067        4.17436        1.62575
H          3.03555        4.34896        2.17539
H          4.80315        4.54617        2.24285
H          3.94230        4.79395        0.71469
C          5.34822        2.26091        0.73099
H          6.16305        2.96598        0.54409
C          2.36177       -3.37548       -1.27126
H          1.38777       -3.32139       -1.79110
C          2.32260       -4.52541       -0.28584
H          1.48651       -4.38469        0.41541
H          3.26220       -4.57074        0.28631
H          2.18664       -5.48390       -0.80955
C          3.47746       -3.49541       -2.28803
H          3.47297       -2.64382       -2.98319
H          4.45501       -3.52256       -1.78246
H          3.36639       -4.42054       -2.87295
C          2.31970        0.27309       -2.11830
H          3.22555       -0.30067       -1.86857
C          2.65762        1.74813       -2.14667
H          3.41216        1.94565       -2.92278
H          3.06601        2.06878       -1.17891
H          1.76317        2.34886       -2.37183
C          1.75428       -0.22669       -3.43513
H          1.47693       -1.28892       -3.36703
H          0.85351        0.34379       -3.70945
H          2.49246       -0.11347       -4.24364
