104
Cat714.ts34.5.log	Energy: -1734044.2777618
C          0.28023       -3.78908       -0.94710
H          0.16692       -4.23537       -1.93808
H          1.27091       -3.92723       -0.50253
C         -0.85711       -3.75121       -0.08429
H         -1.83684       -4.07158       -0.45016
H         -0.71389       -3.96444        0.98122
H         -0.83362       -2.23311        0.50309
Rh        -0.44484       -1.76756       -0.99819
C          2.15452       -0.82193        1.31009
O          2.79960       -0.82736       -1.32499
O          1.22241        1.00914       -0.47364
C         -1.94098        1.32296       -1.77516
O         -3.53292       -0.44828       -0.59857
O         -1.66090        0.55872        0.86327
P         -1.89822       -0.10477       -0.64849
P          1.43338       -0.66193       -0.36921
C         -0.59812       -1.73757       -2.90011
O         -0.66938       -1.67762       -4.04622
H          3.02140       -0.14805        1.40977
H          2.54952       -1.84926        1.37628
C          1.10855       -0.54995        2.38336
H          0.56061        0.37371        2.13670
H          0.34139       -1.34332        2.35688
C          1.66975       -0.43237        3.80070
H          2.41254        0.38896        3.79644
C          0.55678       -0.05158        4.77008
H          0.05308        0.87680        4.45831
H          0.94217        0.09548        5.79101
H         -0.20969       -0.84337        4.81353
C          2.38372       -1.70201        4.24919
H          2.76409       -1.60271        5.27768
H          3.24042       -1.94496        3.60248
H          1.69429       -2.56328        4.23097
C          4.03421       -1.23986       -0.90431
C          4.33855       -2.60211       -0.91719
H          3.57772       -3.30820       -1.25695
C          4.99620       -0.31902       -0.48902
H          4.75544        0.74523       -0.48574
C          5.59480       -3.03639       -0.50569
H          5.81954       -4.10672       -0.51721
C          6.24951       -0.77052       -0.08182
H          6.99421       -0.03985        0.24634
C          6.57494       -2.13136       -0.07936
C          7.93823       -2.60550        0.33424
H          7.88831       -3.57308        0.85533
H          8.43063       -1.88389        1.00194
H          8.59408       -2.74183       -0.54210
C          2.23583        1.92160       -0.39866
C          2.87832        2.33040       -1.56954
H          2.57943        1.87914       -2.51679
C          2.60902        2.47562        0.82606
H          2.09654        2.16226        1.73748
C          3.89520        3.27636       -1.50548
H          4.39705        3.58213       -2.42779
C          3.63281        3.42083        0.87392
H          3.92177        3.84399        1.83991
C          4.29641        3.83714       -0.28467
C          5.38495        4.86979       -0.23347
H          5.02283        5.84668       -0.59457
H          6.23801        4.58701       -0.86864
H          5.75643        5.01359        0.79095
H         -1.76728        0.88096       -2.77090
H         -1.01305        1.86498       -1.52880
C         -3.16685        2.22545       -1.80208
H         -4.04514        1.61633       -2.06712
H         -3.37151        2.63165       -0.79946
C         -3.04009        3.39500       -2.78236
H         -2.80697        2.97678       -3.78022
C         -4.36898        4.13550       -2.88045
H         -5.18280        3.46361       -3.19465
H         -4.31634        4.96464       -3.60311
H         -4.64787        4.56172       -1.90218
C         -1.91692        4.35189       -2.39553
H         -1.85226        5.19296       -3.10316
H         -0.93274        3.85944       -2.38119
H         -2.09360        4.76808       -1.38966
C         -3.96348       -1.64414       -0.08810
C         -4.65908       -2.51602       -0.92329
H         -4.83410       -2.22408       -1.96024
C         -3.70426       -2.00425        1.23456
H         -3.13781       -1.32626        1.87539
C         -5.09840       -3.74078       -0.43058
H         -5.63842       -4.42028       -1.09601
C         -4.14657       -3.23641        1.71070
H         -3.93178       -3.51372        2.74659
C         -4.85109       -4.12669        0.89341
C         -5.34862       -5.44147        1.42076
H         -6.40229       -5.36955        1.73891
H         -4.76549       -5.77281        2.29200
H         -5.29429       -6.22942        0.65495
C         -2.12107        1.78169        1.27040
C         -3.41626        1.92606        1.76769
H         -4.07688        1.05838        1.80437
C         -1.26790        2.88206        1.20448
H         -0.26084        2.74648        0.80729
C         -3.85644        3.18240        2.17413
H         -4.87742        3.29234        2.55026
C         -1.72478        4.13110        1.61596
H         -1.05310        4.99150        1.54843
C         -3.02517        4.30788        2.10365
C         -3.50409        5.65347        2.56647
H         -4.58230        5.78012        2.39026
H         -2.97606        6.46827        2.05035
H         -3.33272        5.78550        3.64810
