118
Cat741.ts34.5.log	Energy: -2208088.4367852
C         -0.01412       -2.46413        2.21055
H          0.83430       -2.38252        2.89411
H         -1.00444       -2.53548        2.66335
C          0.19011       -2.94463        0.90592
H          1.19492       -3.23833        0.59171
H         -0.62167       -3.48058        0.40584
H         -0.02162       -1.76479       -0.29494
Rh         0.04614       -0.71127        0.90837
C         -2.77894       -1.44714       -1.09413
C         -3.60846        0.13251        0.97337
C         -1.90595        1.34917       -1.03209
C          2.03773        1.49952       -1.13817
C          3.27408        0.21956        1.25083
C          3.00297       -1.18815       -1.20786
P          2.03382       -0.03334       -0.11588
P         -2.03477       -0.16225        0.01589
C          0.12884        0.52264        2.31742
O          0.15194        1.28001        3.18942
C         -3.07126       -1.29936       -2.44993
H         -2.94475       -0.32226       -2.91282
C         -3.08025       -2.68900       -0.49180
O         -2.90777       -2.75625        0.84435
C         -3.31849       -3.89235        1.54379
H         -4.38598       -4.11415        1.36984
H         -3.16733       -3.67242        2.60814
H         -2.71783       -4.78090        1.27814
C         -3.55180       -2.36080       -3.21821
H         -3.76213       -2.21146       -4.27982
C         -3.55105       -3.76211       -1.25551
H         -3.75953       -4.72340       -0.78507
C         -3.77080       -3.59873       -2.62333
H         -4.13747       -4.44200       -3.21383
C         -4.78505        0.54875        0.31864
O         -4.68403        0.76304       -1.00601
C         -5.79979        1.15616       -1.74540
H         -5.46354        1.24598       -2.78637
H         -6.61210        0.41013       -1.69408
H         -6.19066        2.13449       -1.41353
C         -3.67580       -0.07583        2.36335
O         -2.55753       -0.49537        2.97476
C         -2.49279       -0.55291        4.36728
H         -1.45906       -0.82672        4.61429
H         -3.17727       -1.31413        4.78428
H         -2.71972        0.42358        4.82967
C         -4.86860        0.14192        3.07227
H         -4.90878       -0.01980        4.14863
C         -5.98142        0.75776        1.01676
H         -6.88291        1.07917        0.49650
C         -6.00627        0.55394        2.39151
H         -6.93513        0.71717        2.94380
C         -2.33641        2.60500       -0.56237
O         -2.72898        2.65229        0.72790
C         -3.47750        3.73220        1.19794
H         -3.81086        3.46161        2.20847
H         -2.87926        4.65979        1.25525
H         -4.36404        3.91865        0.56709
C         -1.26204        1.32178       -2.28596
O         -0.67662        0.16084       -2.63176
C         -0.16937        0.00838       -3.92581
H          0.27233       -0.99269       -3.96465
H          0.61810        0.74807       -4.14137
H         -0.96776        0.09186       -4.68565
C         -1.25558        2.44767       -3.12058
H         -0.78330        2.40517       -4.10016
C         -2.32991        3.73674       -1.38433
H         -2.71331        4.68945       -1.01895
C         -1.81278        3.63704       -2.67229
H         -1.80490        4.51507       -3.32226
C          2.56431        1.51417       -2.42783
H          3.04324        0.60996       -2.80815
C          1.42209        2.67917       -0.65909
O          0.94709        2.64263        0.59576
C          0.42714        3.80218        1.17777
H          1.19499        4.59329        1.25251
H          0.09656        3.51635        2.18298
H         -0.43258        4.19214        0.60860
C          2.51147        2.65430       -3.23396
H          2.94683        2.63472       -4.23582
C          1.37449        3.82405       -1.45708
H          0.89444        4.72898       -1.08607
C          1.91862        3.80949       -2.74144
H          1.86912        4.71275       -3.35485
C          3.59094       -0.91342        2.03003
O          3.11875       -2.09637        1.58174
C          3.52644       -3.28236        2.19661
H          3.07845       -4.10163        1.62017
H          4.62514       -3.39154        2.18089
H          3.17329       -3.35309        3.24039
C          3.87088        1.43870        1.62802
O          3.72586        2.47830        0.78941
C          4.18048        3.74590        1.14521
H          3.87495        4.41844        0.33195
H          5.28106        3.78181        1.24230
H          3.73189        4.09673        2.09181
C          4.63676        1.54459        2.79867
H          5.06406        2.50267        3.09214
C          4.37717       -0.82166        3.18440
H          4.59392       -1.70669        3.78083
C          4.87452        0.41678        3.57184
H          5.47303        0.49977        4.48208
C          2.40581       -2.26759       -1.89577
O          1.07190       -2.23866       -2.04223
C          0.37082       -3.35628       -2.51206
H         -0.69554       -3.10872       -2.42262
H          0.60381       -3.57122       -3.57015
H          0.58675       -4.25483       -1.90922
C          4.41324       -1.10714       -1.25209
O          4.95615        0.02963       -0.78857
C          6.31357        0.08664       -0.46280
H          6.46785        1.04899        0.04213
H          6.95700        0.04552       -1.35945
H          6.59956       -0.72620        0.22676
C          5.19519       -2.14231       -1.78008
H          6.28271       -2.07450       -1.77509
C          3.18065       -3.30752       -2.43081
H          2.70317       -4.15001       -2.92956
C          4.56566       -3.24428       -2.34546
H          5.16828       -4.05592       -2.76069
