86
Cat807.ts34.5.log	Energy: -1304850.0634832
C          2.98775        1.49526       -2.18047
H          3.32217        2.52937       -2.06306
H          3.80399        0.76767       -2.22984
C          1.81207        1.25509       -2.95533
H          1.24178        2.10411       -3.34175
H          1.80946        0.39965       -3.64203
H          0.92817        0.24331       -2.05351
Rh         1.42947        1.10361       -0.76655
C          2.29530       -2.45751       -0.58430
C          4.29095       -0.61075        0.31372
C          2.00656       -1.20531        1.96270
C         -1.25947       -0.20417        1.13462
C         -1.37439        2.62928        0.71814
C         -2.07117        0.80238       -1.41484
P         -0.78482        1.09354       -0.11974
P          2.44552       -0.77370        0.21804
C          1.84392        2.59449        0.30219
O          2.07905        3.49553        0.98662
H          2.77944       -2.35405       -1.56825
H          2.86886       -3.19662       -0.00300
C          0.87482       -2.90310       -0.74124
C          0.24569       -3.66908        0.24840
H          0.80998       -3.97810        1.13203
C          0.12875       -2.52979       -1.86583
H          0.61218       -1.93412       -2.64427
C         -1.08947       -4.04225        0.11128
H         -1.57141       -4.63468        0.89257
C         -1.20806       -2.90540       -2.02767
C         -1.96414       -2.53579       -3.27129
H         -1.53178       -1.64972       -3.75761
H         -1.94022       -3.35880       -4.00490
H         -3.02240       -2.32601       -3.05470
C         -1.81207       -3.66493       -1.01806
H         -2.85680       -3.97106       -1.12366
H          4.63713       -0.59834       -0.73395
H          4.47093        0.41218        0.68547
C          5.09162       -1.62361        1.12028
H          4.86070       -2.64832        0.78223
H          4.78754       -1.57925        2.17938
C          6.59210       -1.38828        1.02088
H          6.94046       -1.46821       -0.02133
H          6.86059       -0.38194        1.37984
H          7.15765       -2.11884        1.61938
H          0.97158       -1.57941        1.93630
H          2.63184       -2.04790        2.30543
C          2.10995       -0.02827        2.92158
H          1.55010        0.82324        2.49954
H          3.15744        0.31514        2.97930
C          1.59792       -0.35353        4.31607
H          0.53625       -0.64986        4.29043
H          2.15871       -1.18760        4.76766
H          1.68653        0.51193        4.99025
H         -0.94734       -1.15871        0.68327
H         -0.59734       -0.01596        1.99212
C         -2.69092       -0.25503        1.56868
C         -3.14077        0.48407        2.67050
H         -2.42960        1.08397        3.24469
C         -3.61896       -1.03847        0.87292
H         -3.26785       -1.64472        0.03408
C         -4.48156        0.44674        3.04498
H         -4.81947        1.02188        3.91069
C         -4.96922       -1.08431        1.23064
C         -5.93996       -1.91077        0.43694
H         -6.36890       -1.32547       -0.39383
H         -5.45054       -2.79156       -0.00443
H         -6.77840       -2.25928        1.05730
C         -5.39207       -0.32712        2.32905
H         -6.44226       -0.35400        2.63259
H         -2.39643        2.46315        1.09722
H         -0.71931        2.74721        1.59925
C         -1.31979        3.89101       -0.13493
H         -2.11566        3.84912       -0.89755
H         -0.36572        3.91676       -0.68791
C         -1.46959        5.15849        0.69169
H         -2.40996        5.15737        1.26638
H         -0.63871        5.25533        1.40841
H         -1.46729        6.05678        0.05553
H         -2.12538       -0.29031       -1.54667
H         -3.04286        1.11204       -0.99306
C         -1.82738        1.46507       -2.76375
H         -0.93312        1.01533       -3.22197
H         -1.57988        2.53001       -2.62836
C         -3.01945        1.32977       -3.69888
H         -3.27815        0.27214       -3.86774
H         -3.91290        1.82173       -3.28187
H         -2.81639        1.78438       -4.68065
