108
Cat840.ts34.5.log	Energy: -1860946.1506339
C          0.47321       -1.87167       -3.33472
H          0.28835       -1.53813       -4.35902
H          1.51956       -2.13158       -3.13515
C         -0.55282       -2.60285       -2.66434
H         -1.51935       -2.75210       -3.15446
H         -0.26909       -3.45051       -2.02959
H         -0.65658       -1.88163       -1.17894
Rh        -0.44654       -0.49084       -1.98363
C          2.43241       -1.62445       -0.28086
C          2.71891        0.92019       -1.82363
C          1.34491        0.91752        0.82722
C         -2.29002        2.10360       -0.57224
C         -3.88991       -0.11801       -1.64946
C         -2.48931       -0.28749        0.98275
P         -2.25779        0.24237       -0.78809
P          1.51459       -0.06039       -0.76900
C         -0.62303        0.89072       -3.25470
O         -0.70989        1.78010       -3.98747
H          2.06161       -1.87437        0.72341
H          2.02294       -2.38481       -0.96268
C          3.92776       -1.67536       -0.31047
C          4.60447       -1.95958       -1.50483
H          4.03146       -2.16744       -2.41306
C          4.69115       -1.46237        0.84474
H          4.19124       -1.27383        1.79498
C          5.99678       -1.98569       -1.56427
H          6.52812       -2.19585       -2.49406
C          6.08133       -1.48591        0.80477
H          6.67814       -1.31241        1.70213
C          6.71794       -1.73320       -0.40473
F          8.05257       -1.71877       -0.45351
H          3.25452        0.16704       -2.42061
H          2.05790        1.45254       -2.52167
C          3.67238        1.89108       -1.19764
C          3.24870        3.19537       -0.91055
H          2.22871        3.50031       -1.16180
C          4.99906        1.54575       -0.91279
H          5.34801        0.54042       -1.15058
C          4.12189        4.10965       -0.32367
H          3.77779        5.12212       -0.09863
C          5.89372        2.45367       -0.34077
C          7.32304        2.07078       -0.08599
H          7.48262        0.99130       -0.20831
H          7.99808        2.58888       -0.78666
H          7.63861        2.35199        0.93036
C          5.43315        3.74135       -0.03440
H          6.11515        4.46594        0.41959
H          1.40792        1.97353        0.52407
H          0.30319        0.73681        1.12716
C          2.25176        0.63570        1.98601
C          1.91398       -0.35968        2.91405
H          0.97248       -0.90608        2.80904
C          3.43949        1.34971        2.17783
H          3.70507        2.14095        1.47570
C          2.76052       -0.64517        3.98331
H          2.48381       -1.42049        4.70204
C          4.30231        1.07252        3.24227
C          5.59662        1.81812        3.38451
H          5.53849        2.81226        2.91957
H          5.88382        1.93784        4.43937
H          6.41217        1.27332        2.87987
C          3.95099        0.06054        4.14419
H          4.61122       -0.16843        4.98527
H         -1.39701        2.32518        0.03329
H         -2.09189        2.50660       -1.57645
C         -3.52487        2.70826        0.01459
C         -4.54035        3.20455       -0.81519
H         -4.39077        3.21792       -1.89802
C         -3.73084        2.75257        1.40122
H         -2.94298        2.40903        2.07511
C         -5.74195        3.67684       -0.29248
H         -6.54019        4.04945       -0.93653
C         -4.92545        3.21811        1.94219
H         -5.09546        3.24161        3.02001
C         -5.92532        3.65856        1.08356
F         -7.08682        4.06827        1.59450
H         -4.22014        0.84744       -2.06411
H         -3.60173       -0.74515       -2.50228
C         -5.00426       -0.76943       -0.88785
C         -5.31274       -2.11451       -1.11503
H         -4.73109       -2.68451       -1.84385
C         -5.76377       -0.06093        0.05246
H         -5.54852        0.99428        0.22651
C         -6.34917       -2.72831       -0.41519
H         -6.58182       -3.77932       -0.60309
C         -6.80076       -0.66190        0.77098
C         -7.57916        0.12003        1.79011
H         -7.44899        1.20289        1.65572
H         -8.65452       -0.10627        1.73530
H         -7.24852       -0.12729        2.81268
C         -7.08525       -2.01199        0.52471
H         -7.89705       -2.50123        1.07021
H         -1.71980        0.28134        1.53034
H         -3.46866        0.07748        1.32330
C         -2.34930       -1.75024        1.28066
C         -3.47065       -2.53464        1.57217
H         -4.46317       -2.08047        1.58018
C         -1.08836       -2.35462        1.30179
H         -0.21162       -1.74352        1.08318
C         -3.32219       -3.88938        1.85329
H         -4.20545       -4.49283        2.07642
C         -0.91922       -3.71421        1.58463
C          0.45357       -4.32369        1.58718
H          1.14438       -3.75970        2.23385
H          0.43288       -5.36346        1.94201
H          0.89189       -4.32394        0.57604
C         -2.05862       -4.47798        1.85516
H         -1.95234       -5.54282        2.08007
