100
Cat838.ts34.5.log	Energy: -1951001.9618251
C         -0.92236       -3.10273       -2.21431
H         -0.52075       -4.09637       -1.99800
H         -2.01193       -3.07396       -2.32193
C         -0.12709       -2.20675       -2.98608
H          0.88339       -2.49714       -3.28861
H         -0.62830       -1.57025       -3.72445
H         -0.10519       -0.79364       -2.15553
Rh        -0.05447       -1.71729       -0.82178
C         -3.21958       -0.36380       -1.55160
C         -3.07324       -1.45358        1.07157
C         -1.70126        1.05404        0.61060
C          1.89868       -0.24318        1.61905
C          3.40528       -1.17170       -0.70897
C          1.91712        1.26130       -0.90808
P          1.77707       -0.43905       -0.23703
P         -1.99767       -0.58507       -0.15092
C          0.37596       -3.01838        0.46435
O          0.65730       -3.78198        1.28446
H         -2.69254        0.23927       -2.30070
H         -3.30423       -1.38805       -1.94655
C         -4.57472        0.18204       -1.24021
C         -5.62361       -0.67912       -0.89480
H         -5.45017       -1.75813       -0.88208
C         -4.82559        1.56026       -1.24801
H         -4.01801        2.24275       -1.51584
C         -6.87984       -0.18772       -0.54817
H         -7.69879       -0.85429       -0.27159
C         -6.07610        2.06851       -0.91117
H         -6.27923        3.14117       -0.91436
C         -7.08812        1.18472       -0.55688
F         -8.28606        1.66685       -0.21189
C         -2.92411       -2.84031        1.15869
H         -2.14014       -3.30446        0.55610
C         -4.09552       -0.84485        1.83956
O         -4.25139        0.48117        1.71656
C         -5.21037        1.15270        2.48135
H         -6.23069        0.79526        2.26261
H         -5.13976        2.21043        2.19974
H         -5.01187        1.05182        3.56293
C         -3.73662       -3.62378        1.97644
H         -3.59145       -4.70488        2.01875
C         -4.89591       -1.62562        2.68260
H         -5.67580       -1.15769        3.28332
C         -4.71731       -3.00598        2.74437
H         -5.35777       -3.59779        3.40326
C         -1.49587        1.13439        1.99222
H         -1.60410        0.22634        2.59170
C         -1.51211        2.22073       -0.15380
O         -1.61137        2.08921       -1.49556
C         -1.29834        3.17699       -2.32334
H         -2.01021        4.01108       -2.18982
H         -1.37345        2.81162       -3.35545
H         -0.27299        3.53608       -2.14361
C         -1.17070        2.33554        2.61758
H         -1.02218        2.36566        3.69917
C         -1.23059        3.43967        0.47212
H         -1.11013        4.34495       -0.12245
C         -1.06139        3.49575        1.85350
H         -0.83107        4.45245        2.32852
H          1.07958        0.43857        1.89486
H          1.58854       -1.23688        1.97366
C          3.19742        0.13931        2.25665
C          4.21840       -0.81260        2.38435
H          4.04871       -1.83183        2.02958
C          3.43432        1.42775        2.74937
H          2.64437        2.17989        2.69921
C          5.44996       -0.48355        2.94229
H          6.25009       -1.22012        3.03501
C          4.65832        1.77439        3.31614
H          4.84764        2.77778        3.70205
C          5.65787        0.81368        3.39338
F          6.84138        1.14209        3.91817
C          3.42716       -2.50226       -1.12598
H          2.46935       -3.02957       -1.17081
C          4.62416       -0.45657       -0.68051
O          4.56829        0.82593       -0.29039
C          5.73470        1.59281       -0.21166
H          6.46091        1.15879        0.49628
H          5.42654        2.57938        0.15580
H          6.21313        1.70908       -1.20015
C          4.61379       -3.14121       -1.48577
H          4.60062       -4.18695       -1.79940
C          5.81582       -1.08954       -1.05097
H          6.75860       -0.54283       -1.02472
C          5.80588       -2.42683       -1.44581
H          6.74695       -2.90667       -1.72675
C          1.78113        2.40420       -0.12812
H          1.49415        2.31064        0.91800
C          2.22889        1.41719       -2.27611
O          2.29893        0.28037       -2.99339
C          2.73463        0.31720       -4.32113
H          2.04764        0.89622       -4.96324
H          2.75627       -0.72281       -4.66991
H          3.74931        0.74394       -4.40416
C          2.01385        3.67749       -0.65293
H          1.91106        4.55534       -0.01172
C          2.46828        2.68599       -2.80897
H          2.73435        2.80363       -3.85973
C          2.37559        3.81237       -1.98784
H          2.57670        4.80034       -2.40945
