108
Cat820.ts34.5.log	Energy: -1672822.6034470
C         -1.11782       -1.74967       -2.87036
H         -0.67293       -2.72671       -3.07571
H         -2.21149       -1.76041       -2.80374
C         -0.47376       -0.59165       -3.39112
H          0.46838       -0.69267       -3.93691
H         -1.09738        0.22457       -3.77541
H         -0.29451        0.42850       -2.13074
Rh        -0.04570       -0.89129       -1.20997
C         -2.94356        1.03785       -1.10263
C         -3.35898       -1.62304       -0.01969
C         -2.06544        0.44008        1.61715
C          2.15802       -0.11200        1.39563
C          3.42646       -0.40993       -1.24676
C          1.77057        2.04867       -0.62025
P          1.85123        0.19119       -0.44050
P         -2.05054       -0.27607       -0.10240
C          0.65348       -2.48622       -0.51903
O          1.15312       -3.40833       -0.02768
H         -2.30248        1.93051       -1.03993
H         -2.86196        0.68036       -2.14078
C         -4.36771        1.35114       -0.77360
C         -5.41272        0.73219       -1.47335
H         -5.17761        0.06326       -2.30546
C         -4.70594        2.22804        0.26708
H         -3.91552        2.74703        0.81402
C         -6.74498        0.94057       -1.12790
H         -7.56001        0.45458       -1.66720
C         -6.03242        2.45034        0.62628
H         -6.29976        3.12908        1.43821
C         -7.03866        1.79271       -0.07091
F         -8.31052        1.99650        0.27112
H         -3.81376       -1.56622       -1.02759
C         -4.48909       -1.43414        0.99786
H         -4.94033       -0.43646        0.91660
H         -4.07699       -1.51017        2.01854
C         -5.56408       -2.50374        0.82634
H         -6.36128       -2.35588        1.57313
H         -6.04039       -2.37699       -0.16301
C         -4.98027       -3.90698        0.93512
H         -5.76218       -4.66591        0.76877
H         -4.60973       -4.06372        1.96468
C         -3.82873       -4.10109       -0.04429
H         -4.22213       -4.06638       -1.07700
H         -3.37832       -5.09926        0.08048
C         -2.75890       -3.02504        0.11022
H         -2.26909       -3.12883        1.09473
H         -1.96497       -3.15796       -0.63755
H         -3.11660        0.64420        1.88779
C         -1.28171        1.74949        1.69067
H         -1.69540        2.49927        0.99765
H         -0.25383        1.55431        1.34547
C         -1.24444        2.31723        3.10570
H         -0.64988        3.24576        3.12257
H         -2.26871        2.59879        3.41098
C         -0.68508        1.30546        4.09872
H         -0.70882        1.71525        5.12135
H          0.37898        1.11743        3.86687
C         -1.44994       -0.01072        4.03198
H         -2.48416        0.15226        4.38575
H         -1.00197       -0.75099        4.71447
C         -1.49022       -0.56980        2.61341
H         -0.47262       -0.84113        2.28567
H         -2.07054       -1.50410        2.59633
H          1.68711        0.72702        1.92706
H          1.53600       -0.99213        1.60589
C          3.54539       -0.36159        1.90406
C          4.11614       -1.63583        1.77059
H          3.52554       -2.44431        1.33038
C          4.30715        0.63654        2.52441
H          3.88101        1.63173        2.66710
C          5.41617       -1.89628        2.19412
H          5.86472       -2.88566        2.08785
C          5.60722        0.39302        2.95964
H          6.20455        1.16911        3.44146
C          6.15189       -0.87161        2.77638
F          7.39832       -1.11080        3.18233
H          3.58269       -1.36762       -0.71544
C          4.69259        0.42886       -1.06052
H          4.85159        0.67831       -0.00319
H          4.57930        1.38435       -1.60074
C          5.91486       -0.30487       -1.60701
H          6.81489        0.31799       -1.47680
H          6.07947       -1.21647       -1.00485
C          5.73278       -0.68559       -3.07099
H          6.60785       -1.24761       -3.43602
H          5.67958        0.23575       -3.67972
C          4.45584       -1.49293       -3.27441
H          4.55629       -2.46682       -2.76174
H          4.30793       -1.71986       -4.34289
C          3.23149       -0.77086       -2.72155
H          3.04746        0.14508       -3.31002
H          2.32920       -1.39352       -2.81947
H          0.72879        2.23941       -0.30680
C          1.86068        2.47749       -2.08698
H          1.18816        1.85792       -2.70052
H          2.88276        2.30253       -2.46285
C          1.51872        3.95497       -2.24768
H          1.61237        4.25086       -3.30514
H          0.45959        4.11159       -1.97309
C          2.40397        4.82907       -1.36737
H          2.12206        5.88976       -1.46668
H          3.44974        4.75164       -1.71648
C          2.33075        4.39419        0.09136
H          1.30828        4.57315        0.47171
H          3.00404        5.00765        0.71194
C          2.66912        2.91437        0.26220
H          3.72899        2.74627        0.01393
H          2.54629        2.63711        1.31957
