106
Cat803.ts34.5.log	Energy: -1875913.8497487
C         -1.89543       -0.85090       -3.33046
H         -2.51100       -1.74905       -3.42514
H         -2.41233        0.07119       -3.61597
C         -0.49227       -0.95178       -3.60352
H         -0.04809       -1.93362       -3.78844
H         -0.01971       -0.15987       -4.19753
H          0.16090       -0.11235       -2.42289
Rh        -0.90934       -0.82839       -1.43268
C         -1.70787        2.70284       -1.53969
O         -3.57600        1.08128       -0.76528
O         -1.59404        1.51703        0.90763
C          1.73328        0.57546        0.27153
O          0.84627       -1.65623        1.38080
O          2.08679       -1.91865       -0.89079
P          0.91861       -1.00442       -0.14858
P         -1.89898        1.06986       -0.68721
C         -1.90044       -2.37686       -0.86832
O         -2.54637       -3.29266       -0.63091
H         -2.12175        2.54276       -2.54705
H         -2.33374        3.45069       -1.03109
C         -0.26801        3.11079       -1.58952
C          0.30534        3.84102       -0.54232
H         -0.32034        4.17724        0.28815
C          0.55156        2.70258       -2.64824
H          0.10580        2.14513       -3.47690
C          1.66762        4.13134       -0.55410
H          2.11014        4.69073        0.27353
C          1.91877        2.99530       -2.68249
C          2.76633        2.58278       -3.85124
H          2.31591        1.74561       -4.40338
H          2.88880        3.41766       -4.56112
H          3.77385        2.27777       -3.53206
C          2.47020        3.70808       -1.61075
H          3.53920        3.93805       -1.60748
C         -4.32302       -0.00638       -0.39086
C         -4.13445       -0.61107        0.85059
H         -3.37667       -0.21741        1.52771
C         -5.29643       -0.46489       -1.29022
C         -5.48956        0.21745       -2.60934
H         -6.36237       -0.18844       -3.13855
H         -5.63068        1.30140       -2.48085
H         -4.60810        0.08766       -3.25614
C         -4.90412       -1.71564        1.20431
H         -4.73962       -2.20142        2.16832
C         -6.06106       -1.56910       -0.90413
H         -6.82296       -1.94479       -1.59270
C         -5.86723       -2.19982        0.32397
H         -6.47099       -3.06961        0.59130
C         -2.07732        2.57327        1.63871
C         -3.34842        3.11593        1.43159
H         -3.98922        2.69987        0.65586
C         -1.24221        3.06594        2.65991
C          0.11233        2.47720        2.90081
H          0.07016        1.38064        2.94168
H          0.81636        2.73730        2.09433
H          0.53872        2.84377        3.84400
C         -3.78914        4.17672        2.22089
H         -4.78358        4.59419        2.04700
C         -1.71802        4.12523        3.43725
H         -1.07658        4.51314        4.23337
C         -2.97467        4.68878        3.22533
H         -3.31656        5.51728        3.84926
H          1.90402        1.05646       -0.70392
H          0.90394        1.13565        0.72978
C          2.96488        0.62657        1.12516
C          2.93477        0.26994        2.47973
H          2.00360       -0.08442        2.92254
C          4.17019        1.06709        0.57469
H          4.19379        1.35502       -0.48019
C          4.09471        0.33806        3.24348
H          4.06589        0.05468        4.29862
C          5.34710        1.13515        1.32671
C          6.62915        1.57736        0.68504
H          6.98116        0.81931       -0.03350
H          6.49675        2.51758        0.12748
H          7.42313        1.73179        1.42919
C          5.29384        0.76253        2.67274
H          6.20169        0.80845        3.28054
C          0.05221       -2.74461        1.65096
C          0.31640       -3.97702        1.05673
H          1.14820       -4.06324        0.35546
C         -1.01029       -2.56875        2.54875
C         -1.25793       -1.22896        3.16883
H         -2.19551       -1.22539        3.74135
H         -0.44167       -0.95319        3.85651
H         -1.30979       -0.44070        2.40354
C         -0.49645       -5.06874        1.35151
H         -0.29917       -6.03349        0.87921
C         -1.80708       -3.68219        2.82634
H         -2.64542       -3.56794        3.51909
C         -1.56189       -4.92060        2.23529
H         -2.20918       -5.77007        2.46349
C          3.43402       -1.94420       -0.62605
C          3.92789       -2.39824        0.59423
H          3.22961       -2.69766        1.37629
C          4.28557       -1.53256       -1.66094
C          3.70246       -1.04355       -2.95069
H          3.07583       -1.81637       -3.42238
H          3.04523       -0.17509       -2.78491
H          4.49048       -0.74978       -3.65751
C          5.30369       -2.42462        0.80610
H          5.69407       -2.75976        1.76925
C          5.66188       -1.58554       -1.42689
H          6.34413       -1.27134       -2.22193
C          6.17297       -2.02277       -0.20564
H          7.25301       -2.04819       -0.04402
