104
Cat837.ts34.5.log	Energy: -1577234.0218651
C          0.87345       -0.04836       -3.53630
H          0.23880        0.61097       -4.13467
H          1.94543        0.15211       -3.64624
C          0.44489       -1.39618       -3.34196
H         -0.52746       -1.71435       -3.72844
H          1.19666       -2.19258       -3.37899
H          0.60708       -1.66194       -1.71834
Rh         0.09605       -0.12913       -1.53857
C          3.05312        1.87855       -1.04413
C          2.48478        0.25942        1.24272
C          3.49195       -0.95318       -1.15030
C         -1.29357       -0.24833        1.77771
C         -3.10870       -0.87706       -0.34569
C         -1.07105       -2.78353        0.37760
P         -1.31342       -0.97641        0.06040
P          2.21722        0.27212       -0.59202
C         -1.03330        1.35182       -1.81532
O         -1.77344        2.21388       -2.02211
H          4.05365        1.90948       -0.58557
H          3.18449        1.84936       -2.13704
C          2.24737        3.07268       -0.64119
C          1.25215        3.57704       -1.48709
H          1.09628        3.11167       -2.46203
C          2.42541        3.67847        0.60882
H          3.20092        3.30606        1.28324
C          0.45095        4.64734       -1.10356
H         -0.33848        5.03019       -1.75191
C          1.63320        4.75146        1.01129
H          1.76102        5.22802        1.98469
C          0.65522        5.21940        0.14433
F         -0.12831        6.23128        0.53273
H          1.76292        0.98017        1.66268
H          3.48915        0.64904        1.47774
C          2.27346       -1.12095        1.84752
H          1.37119       -1.56590        1.39622
H          3.10562       -1.78780        1.55900
C          2.13279       -1.15153        3.37078
H          1.32459       -0.44729        3.64565
C          1.71531       -2.54230        3.83431
H          0.76446       -2.85136        3.37106
H          1.58499       -2.58192        4.92672
H          2.47686       -3.29231        3.56228
C          3.40601       -0.69356        4.07250
H          3.28949       -0.71882        5.16691
H          3.68210        0.33446        3.79355
H          4.25293       -1.35093        3.81196
H          3.42434       -0.98277       -2.25157
H          3.09622       -1.92388       -0.81102
C          4.93597       -0.76131       -0.71145
H          5.34491        0.14558       -1.18696
H          4.98548       -0.57949        0.37780
C          5.86043       -1.93954       -1.03871
H          5.74328       -2.16553       -2.11549
C          7.31567       -1.55699       -0.79431
H          7.60930       -0.68142       -1.39407
H          7.99801       -2.38309       -1.04761
H          7.48023       -1.30419        0.26669
C          5.49378       -3.19316       -0.25128
H          6.15958       -4.03184       -0.50660
H          4.46230       -3.52338       -0.44586
H          5.58868       -3.01239        0.83313
H         -1.76455       -0.96039        2.47202
H         -0.23631       -0.16122        2.06035
C         -1.98581        1.07864        1.86483
C         -1.37924        2.25779        1.41004
H         -0.37180        2.22480        0.98684
C         -3.28692        1.15691        2.37799
H         -3.77542        0.24877        2.74172
C         -2.05076        3.47643        1.46925
H         -1.59068        4.40307        1.12752
C         -3.97291        2.36621        2.44017
H         -4.98557        2.43280        2.84176
C         -3.34078        3.51434        1.98113
F         -3.98573        4.67972        2.03977
H         -3.34035        0.19841       -0.41804
H         -3.69598       -1.27122        0.49966
C         -3.45112       -1.57624       -1.65205
H         -2.72086       -1.25113       -2.41350
H         -3.31616       -2.66907       -1.54452
C         -4.86601       -1.30609       -2.16772
H         -4.96503       -0.21096       -2.28790
C         -5.05902       -1.94721       -3.53686
H         -4.30596       -1.59022       -4.25656
H         -6.05431       -1.72272       -3.95076
H         -4.96542       -3.04458       -3.47283
C         -5.93979       -1.77088       -1.19020
H         -6.94886       -1.58719       -1.59075
H         -5.87076       -1.25119       -0.22267
H         -5.85099       -2.85407       -0.99772
H         -0.04258       -2.89139        0.76078
H         -1.05404       -3.23205       -0.62789
C         -2.06207       -3.49702        1.28284
H         -2.15048       -2.96038        2.24275
H         -3.06951       -3.47381        0.83012
C         -1.69847       -4.95427        1.58753
H         -0.68841       -4.95335        2.04050
C         -2.66813       -5.53945        2.60760
H         -2.68521       -4.94591        3.53513
H         -2.39683       -6.57260        2.87410
H         -3.69491       -5.55875        2.20549
C         -1.64791       -5.81362        0.32919
H         -1.40697       -6.85961        0.57367
H         -0.89062       -5.46023       -0.38626
H         -2.62366       -5.80884       -0.18573
