48
Cat88.ts34.5.log	Energy: -867189.5166182
C         -1.39185       -2.54229       -0.44425
H         -1.06495       -3.42191        0.11665
H         -2.45386       -2.30479       -0.31294
C         -0.78923       -2.29649       -1.71713
H          0.02497       -2.94120       -2.05973
H         -1.42969       -1.95256       -2.53776
H         -0.40885       -0.70554       -1.67487
Rh         0.00428       -0.95623       -0.12272
C         -3.10859        0.73803       -0.61635
C         -2.46879        0.02101        2.12103
C         -1.28740        2.31581        0.96910
C          2.31767        1.72173        0.38907
C          3.47015       -0.75912       -0.58171
C          1.95501        0.87902       -2.34902
P          1.91333        0.21469       -0.63802
P         -1.66029        0.55725        0.55844
C          0.78882       -1.77353        1.38054
O          1.28468       -2.25074        2.30866
H         -3.35182       -0.31163       -0.86255
C         -4.35389        1.39779       -0.03903
H         -5.15095        1.44179       -0.79940
H         -4.75675        0.85004        0.82478
H         -4.15591        2.43435        0.27864
C         -2.65416        1.42535       -1.89949
H         -1.73369        0.96799       -2.29383
H         -3.43302        1.35622       -2.67550
H         -2.45654        2.49661       -1.73142
H         -2.91933       -0.97039        1.96646
H         -1.68344       -0.09076        2.88259
H         -3.23379        0.72204        2.48834
H         -2.17382        2.87006        1.31571
H         -0.52797        2.33526        1.76385
H         -0.86822        2.82285        0.08848
H          1.46294        2.38789        0.17623
C          2.28658        1.37183        1.87193
H          2.39270        2.27994        2.48681
H          1.34610        0.87142        2.14328
H          3.11205        0.69403        2.14331
C          3.60520        2.44255        0.00985
H          3.63481        2.73078       -1.05117
H          3.71163        3.36613        0.60171
H          4.49130        1.82305        0.21917
H          3.62371       -1.13739        0.43928
H          3.34490       -1.63038       -1.24010
H          4.35283       -0.18400       -0.90077
H          2.91267        1.35686       -2.60353
H          1.77212        0.04594       -3.04241
H          1.13699        1.60417       -2.46992
