106
Cat809.ts34.5.log	Energy: -1875820.2939102
C         -1.97934       -1.28652       -3.07828
H         -2.02327       -2.36678       -3.23914
H         -2.95511       -0.78987       -3.10272
C         -0.82683       -0.58868       -3.54252
H         -0.00443       -1.15534       -3.98940
H         -0.96745        0.39510       -4.00735
H         -0.30949        0.30337       -2.29376
Rh        -0.80253       -0.91352       -1.32585
C         -2.37359        2.30459       -1.16336
C         -4.13503        0.09923       -0.77770
C         -2.48406        0.83422        1.39395
C          1.37397        0.96216        0.69678
C          1.46702       -1.94130        1.11697
C          2.74268       -0.67792       -1.19183
P          1.20336       -0.67688       -0.18184
P         -2.39485        0.58627       -0.43025
C         -1.10166       -2.64640       -0.66619
O         -1.30151       -3.71287       -0.26899
H         -2.49541        2.13582       -2.24455
H         -3.23762        2.87016       -0.79324
C         -1.09777        3.04372       -0.90876
C         -0.88008        3.70014        0.31047
H         -1.66240        3.69085        1.07169
C         -0.08374        3.07357       -1.87109
H         -0.24883        2.57176       -2.82876
C          0.32487        4.35267        0.54990
H          0.49140        4.85237        1.50712
C          1.13601        3.72463       -1.64665
C          2.20896        3.70396       -2.69668
H          2.54840        2.67431       -2.89695
H          1.84428        4.11571       -3.65097
H          3.08536        4.29059       -2.38735
C          1.32818        4.36383       -0.41858
H          2.27759        4.86464       -0.21343
C         -4.97612        0.78813       -1.65312
H         -4.63845        1.72085       -2.10657
C         -4.61125       -1.10415       -0.20673
O         -3.76552       -1.73199        0.62583
C         -4.13123       -2.94113        1.22655
H         -5.01569       -2.81990        1.87627
H         -3.27411       -3.25441        1.83465
H         -4.33432       -3.72323        0.47532
C         -6.25303        0.31642       -1.96612
H         -6.88766        0.87723       -2.65559
C         -5.88944       -1.57802       -0.51292
H         -6.25266       -2.50566       -0.07000
C         -6.70509       -0.86573       -1.39288
H         -7.70177       -1.24744       -1.62730
C         -1.72255       -0.02696        2.18297
H         -1.10760       -0.76845        1.66586
C         -3.34191        1.74803        2.03948
O         -4.10632        2.53470        1.25269
C         -5.07960        3.35733        1.83161
H         -5.79464        2.77470        2.43736
H         -5.61961        3.83152        1.00229
H         -4.63284        4.14524        2.46310
C         -1.76041        0.01991        3.57538
H         -1.15799       -0.67644        4.16249
C         -3.37652        1.81242        3.43736
H         -4.02555        2.52843        3.94201
C         -2.58425        0.95221        4.19702
H         -2.62709        1.01247        5.28746
H          1.02610        1.65583       -0.08057
H          0.59941        0.98233        1.47664
C          2.70683        1.40818        1.21250
C          3.03474        1.36425        2.57364
H          2.30138        1.00455        3.29824
C          3.65939        1.91591        0.32278
H          3.41046        1.97559       -0.73878
C          4.28240        1.79432        3.01529
H          4.52169        1.75966        4.08125
C          4.92201        2.34326        0.74466
C          5.91344        2.85086       -0.26188
H          5.51236        3.71392       -0.81720
H          6.85413        3.16254        0.21384
H          6.14457        2.07239       -1.00701
C          5.22610        2.27486        2.10783
H          6.20523        2.60994        2.46167
C          1.29562       -1.67626        2.47349
H          1.09045       -0.65753        2.79887
C          1.72456       -3.27005        0.72249
O          1.89070       -3.46197       -0.59796
C          1.92318       -4.76285       -1.11137
H          2.81353       -5.31814       -0.76716
H          1.96751       -4.66347       -2.20312
H          1.01313       -5.32251       -0.83616
C          1.36958       -2.69008        3.43053
H          1.23215       -2.45331        4.48795
C          1.79458       -4.29099        1.67231
H          1.98419       -5.31906        1.36305
C          1.61872       -3.99596        3.02454
H          1.67598       -4.80170        3.76043
C          2.65050       -0.29397       -2.52786
H          1.65608       -0.10424       -2.93403
C          4.02287       -0.93668       -0.65464
O          4.07675       -1.28397        0.63789
C          5.30967       -1.40993        1.28589
H          5.90761       -2.24035        0.87075
H          5.08072       -1.62460        2.33712
H          5.88932       -0.47323        1.23123
C          3.78144       -0.14606       -3.33234
H          3.67780        0.16371       -4.37431
C          5.15988       -0.80891       -1.46129
H          6.14901       -1.00849       -1.04849
C          5.03521       -0.40969       -2.79136
H          5.93390       -0.30845       -3.40526
