84
Cat824.ts34.5.log	Energy: -2817022.4109833
C         -0.59923       -3.68257       -1.52213
H         -0.31857       -4.62193       -1.03855
H         -1.64919       -3.62635       -1.82681
C          0.37125       -3.02265       -2.33189
H          1.39087       -3.41347       -2.39556
H          0.03751       -2.56713       -3.27178
H          0.30439       -1.47389       -1.85402
Rh         0.15336       -2.04665       -0.34508
C         -2.18660        0.12251       -1.71788
C         -3.36296       -1.52794        0.41868
C         -1.70315        0.58325        1.18623
C          2.39331       -0.20496        1.77565
C          3.42242       -0.93156       -0.79315
C          1.43530        1.12698       -0.66127
P          1.83073       -0.52847        0.02240
P         -1.78770       -0.72825       -0.09928
C          0.45327       -3.06738        1.21526
O          0.65143       -3.64010        2.19687
H         -1.28547        0.72516       -1.91438
H         -2.13826       -0.72406       -2.42268
C         -3.42836        0.92458       -1.96471
C         -4.68335        0.30931       -2.07000
H         -4.76348       -0.77462       -1.96552
C         -3.35762        2.31279       -2.14995
H         -2.38680        2.81501       -2.11994
C         -5.83529        1.05333       -2.30833
H         -6.81507        0.57873       -2.38682
C         -4.49968        3.07245       -2.38955
H         -4.44539        4.15266       -2.53596
C         -5.73018        2.43102       -2.45576
F         -6.82934        3.14885       -2.68057
C         -3.44554       -2.92386        0.42875
H         -2.56453       -3.50562        0.15012
C         -4.47561       -0.78557        0.83994
H         -4.42844        0.30457        0.87463
C         -4.61744       -3.57172        0.81262
H         -4.67921       -4.66104        0.82193
C         -5.65155       -1.41772        1.22772
H         -6.51750       -0.83907        1.55315
C         -5.71773       -2.81151        1.20335
Cl        -7.17971       -3.60388        1.68271
C         -2.19911        1.88426        1.05552
H         -2.69946        2.19471        0.13906
C         -1.08774        0.22337        2.39365
H         -0.69751       -0.79164        2.50881
C         -2.05649        2.81402        2.08395
H         -2.43666        3.83094        1.97177
C         -0.94653        1.13618        3.43325
H         -0.46479        0.85055        4.36999
C         -1.42113        2.43869        3.26538
Cl        -1.22137        3.59385        4.53817
H          1.59587        0.37782        2.25932
H          2.37826       -1.19940        2.24592
C          3.74025        0.43123        1.91677
C          4.88612       -0.37222        1.99391
H          4.77894       -1.45976        1.99996
C          3.90881        1.82134        1.90543
H          3.03650        2.47537        1.85593
C          6.16018        0.18269        2.04093
H          7.05444       -0.44051        2.09334
C          5.17723        2.39494        1.95081
H          5.31532        3.47757        1.94352
C          6.28996        1.56573        2.01132
F          7.50589        2.10827        2.04852
C          3.76602       -2.28032       -0.92766
H          3.03593       -3.03975       -0.63011
C          4.34803        0.04684       -1.17808
H          4.10651        1.10589       -1.06460
C          5.01207       -2.65424       -1.42406
H          5.28519       -3.70586       -1.52482
C          5.59075       -0.31216       -1.68758
H          6.31557        0.44781       -1.98323
C          5.91759       -1.66381       -1.80175
Cl         7.46859       -2.11576       -2.42150
C          0.92901        2.16779        0.12150
H          0.86597        2.07132        1.20658
C          1.44992        1.28962       -2.05595
H          1.82997        0.48522       -2.69146
C          0.44314        3.33681       -0.46162
H          0.03381        4.13542        0.15837
C          0.96634        2.44745       -2.65247
H          0.96950        2.56295       -3.73745
C          0.45275        3.46514       -1.84618
Cl        -0.21701        4.88441       -2.58038
