104
Cat84.ts34.5.log	Energy: -1733956.9835391
C         -1.61740       -1.20264       -3.00817
H         -1.52653       -2.26466       -3.25167
H         -2.64677       -0.84211       -2.91901
C         -0.61685       -0.31761       -3.50257
H          0.23684       -0.72666       -4.05157
H         -0.93106        0.66663       -3.86861
H         -0.14677        0.56987       -2.21962
Rh        -0.36580       -0.77589       -1.32373
C         -1.87099        2.20909        0.17311
C         -3.71442        0.18485       -0.74822
C         -2.26810       -0.17077        1.68080
C          1.57813        1.33406        0.65200
C          2.11448       -1.48067        1.03843
C          3.12119       -0.05262       -1.31489
P          1.62822       -0.27611       -0.25398
P         -2.02179        0.37117       -0.06391
C         -0.34314       -2.58907       -0.83780
O         -0.36540       -3.70885       -0.55027
H         -2.82996        2.61165        0.53152
H         -1.16577        2.30976        1.01427
C         -1.33591        2.98107       -1.02252
H         -0.46760        2.44030       -1.43696
H         -2.07817        2.99560       -1.83974
C         -0.92741        4.40501       -0.67379
H         -0.20270        4.37392        0.16112
H         -1.80028        4.96166       -0.28650
C         -0.31239        5.16526       -1.84013
H          0.54802        4.59097       -2.22762
H         -1.03933        5.20752       -2.67060
C          0.13450        6.57162       -1.47527
H          0.57677        7.09602       -2.33594
H          0.89025        6.55306       -0.67304
H         -0.71102        7.17904       -1.11380
C         -4.43528        1.22983       -1.32491
H         -4.02614        2.24128       -1.29995
C         -4.27050       -1.11283       -0.79064
O         -3.53189       -2.08085       -0.22259
C         -3.91579       -3.42021       -0.33913
H         -4.85904       -3.62387        0.19804
H         -3.10836       -4.01204        0.10913
H         -4.03202       -3.71750       -1.39600
C         -5.67454        1.01574       -1.93185
H         -6.21659        1.85273       -2.37731
C         -5.51204       -1.33429       -1.39308
H         -5.94016       -2.33675       -1.42075
C         -6.20916       -0.26743       -1.96175
H         -7.17833       -0.45082       -2.43201
C         -1.40319       -1.12630        2.20979
H         -0.61560       -1.51506        1.56166
C         -3.31254        0.31461        2.49750
O         -4.13689        1.23338        1.95356
C         -5.29641        1.61565        2.63391
H         -5.93080        0.74566        2.87706
H         -5.84957        2.27896        1.95656
H         -5.06926        2.16329        3.56595
C         -1.53661       -1.59711        3.51627
H         -0.83722       -2.34362        3.89791
C         -3.45951       -0.15980        3.80527
H         -4.26518        0.21019        4.44009
C         -2.56947       -1.10981        4.30825
H         -2.69701       -1.46857        5.33290
H          1.15640        2.02812       -0.09241
H          0.79132        1.21666        1.41681
C          2.84745        1.92068        1.24629
H          3.29612        1.21719        1.96551
H          3.59646        2.04787        0.44711
C          2.59747        3.26391        1.91877
H          1.84540        3.14132        2.72010
H          2.14120        3.95818        1.18873
C          3.85325        3.89915        2.49848
H          4.30339        3.20532        3.23064
H          4.60294        4.01141        1.69517
C          3.60052        5.24634        3.15568
H          4.52514        5.68182        3.56422
H          2.87999        5.15721        3.98475
H          3.18250        5.96861        2.43574
C          1.94801       -1.23173        2.39957
H          1.59733       -0.25393        2.73280
C          2.55045       -2.76047        0.63872
O          2.71171       -2.92955       -0.68524
C          2.93023       -4.21191       -1.20118
H          3.89848       -4.62736       -0.87032
H          2.94356       -4.10696       -2.29316
H          2.11711       -4.89984       -0.91464
C          2.20017       -2.21826        3.35535
H          2.05831       -1.99750        4.41536
C          2.79457       -3.75535        1.58747
H          3.11914       -4.74806        1.27485
C          2.62063       -3.47794        2.94410
H          2.81445       -4.26227        3.67986
C          2.91454        0.30146       -2.64725
H          1.88351        0.38621       -2.99467
C          4.45061       -0.19657       -0.86118
O          4.62151       -0.51899        0.43377
C          5.90190       -0.76172        0.93611
H          6.40610       -1.58030        0.39327
H          5.76979       -1.05910        1.98433
H          6.53907        0.13967        0.89442
C          3.97549        0.52267       -3.52564
H          3.77982        0.80369       -4.56243
C          5.51917        0.00213       -1.74221
H          6.54639       -0.11669       -1.39665
C          5.27778        0.36378       -3.06731
H          6.12428        0.51932       -3.74092
