108
Cat835.ts34.5.log	Energy: -1860941.4023639
C          0.18061        0.43603       -3.39097
H          0.07043        1.39005       -3.91380
H          1.18021       -0.00363       -3.48761
C         -0.94606       -0.44446       -3.34693
H         -1.90625       -0.10708       -3.74867
H         -0.78083       -1.51687       -3.50626
H         -0.95652       -0.94008       -1.80027
Rh        -0.60829        0.58948       -1.41133
C          2.09102       -1.69078       -0.90580
C          2.76913        1.17162       -1.14970
C          1.61540        0.11732        1.43833
C         -2.56987        1.52001        1.47040
C         -3.93285        0.31145       -0.85091
C         -2.40158       -1.19499        1.20911
P         -2.31865        0.29315        0.08589
P          1.45849        0.02121       -0.43729
C         -0.70304        2.47466       -1.58527
O         -0.68581        3.60118       -1.83032
H          1.72844       -2.36714       -0.11915
H          1.51363       -1.93105       -1.81178
C          3.54829       -1.91986       -1.16766
C          4.07479       -1.70758       -2.45009
H          3.40893       -1.40012       -3.26189
C          4.42226       -2.35646       -0.16384
H          4.04029       -2.55182        0.83832
C          5.42888       -1.88996       -2.72264
H          5.84095       -1.72350       -3.71940
C          5.77696       -2.54666       -0.41799
H          6.45765       -2.88145        0.36667
C          6.26768       -2.30262       -1.69481
F          7.56558       -2.47989       -1.94273
H          3.20073        0.61815       -1.99522
H          2.18248        1.99216       -1.58230
C          3.86555        1.69946       -0.27893
C          5.12607        1.09144       -0.27906
H          5.29733        0.22846       -0.92374
C          3.64799        2.83383        0.53245
C          2.34867        3.58563        0.48450
H          1.46866        2.92651        0.49179
H          2.26778        4.17953       -0.44149
H          2.26405        4.28182        1.33082
C          6.15558        1.55962        0.53165
H          7.12806        1.06219        0.51564
C          4.68889        3.28323        1.35327
H          4.51933        4.15532        1.99103
C          5.93254        2.65416        1.36405
H          6.72715        3.02717        2.01460
H          1.84374        1.17446        1.63677
H          0.58490       -0.04250        1.78506
C          2.57412       -0.75843        2.18961
C          3.85790       -0.28498        2.48655
H          4.13283        0.72462        2.18143
C          2.20225       -2.04666        2.63503
C          0.80720       -2.57576        2.46590
H          0.41980       -2.46811        1.44319
H          0.10357       -2.04464        3.12938
H          0.75325       -3.64202        2.72389
C          4.78753       -1.07249        3.15747
H          5.78413       -0.67475        3.36211
C          3.15177       -2.82870        3.30451
H          2.86571       -3.82929        3.64026
C          4.43891       -2.36001        3.55801
H          5.15904       -2.99487        4.07967
H         -3.55824        1.32607        1.91598
H         -1.82294        1.23162        2.22627
C         -2.39468        2.96107        1.11609
C         -1.20668        3.62535        1.44233
H         -0.42144        3.08203        1.97319
C         -3.39065        3.68226        0.44466
H         -4.33883        3.20051        0.19391
C         -1.00381        4.95850        1.10291
H         -0.07675        5.47891        1.34807
C         -3.20282        5.01460        0.09029
H         -3.97136        5.58029       -0.43896
C         -2.00471        5.63535        0.41954
F         -1.81707        6.90972        0.08227
H         -4.06766        1.37906       -1.08969
H         -3.67294       -0.16262       -1.80440
C         -5.17871       -0.28601       -0.27056
C         -5.87753        0.37323        0.75002
H         -5.50951        1.33523        1.11499
C         -5.69374       -1.50152       -0.77529
C         -5.02723       -2.23417       -1.90372
H         -3.97706       -2.47213       -1.67850
H         -5.03844       -1.63762       -2.83093
H         -5.54340       -3.18090       -2.11077
C         -7.04875       -0.15061        1.29232
H         -7.57194        0.38754        2.08603
C         -6.87411       -2.01054       -0.22257
H         -7.27215       -2.95061       -0.61405
C         -7.54929       -1.35409        0.80342
H         -8.46811       -1.77924        1.21392
H         -1.45023       -1.14232        1.76292
H         -3.19660       -0.98312        1.93595
C         -2.58277       -2.56909        0.63200
C         -1.68171       -3.06470       -0.31867
H         -0.85177       -2.42809       -0.63125
C         -3.63295       -3.40151        1.07756
C         -4.56767       -2.98268        2.17544
H         -5.07359       -2.03176        1.95503
H         -4.02852       -2.85755        3.12911
H         -5.34721       -3.74010        2.33201
C         -1.83158       -4.33082       -0.87803
H         -1.11582       -4.68610       -1.62318
C         -3.77328       -4.66831        0.49922
H         -4.59364       -5.30860        0.83489
C         -2.89567       -5.13347       -0.47696
H         -3.03526       -6.12707       -0.90941
