112
Cat81.ts34.5.log	Energy: -1643903.8251505
C          0.80217        2.17299       -2.79207
H          0.32352        3.14929       -2.90122
H          1.88512        2.17863       -2.94646
C          0.06035        1.01481       -3.14462
H         -0.97271        1.12312       -3.48754
H          0.59076        0.18967       -3.63383
H          0.02741        0.02150       -1.89714
Rh         0.12611        1.33157       -0.92097
C          2.75822       -1.19200       -0.49611
C          3.58276        1.56890       -0.71151
C          2.55995        0.51564        1.76561
C         -2.97682        1.98733        0.51472
C         -2.96672       -0.13044       -1.52386
C         -2.24812       -0.59102        1.24588
P         -1.93803        0.60103       -0.14056
P          2.17454        0.50599       -0.06327
C          0.04663        2.99151       -0.07200
O          0.00827        4.01012        0.47248
H          3.81032       -1.29911       -0.18156
H          2.17580       -1.88382        0.13036
C          2.58304       -1.55514       -1.96153
H          1.50624       -1.54936       -2.20226
H          3.03637       -0.78298       -2.61014
C          3.17535       -2.91124       -2.31792
H          2.74710       -3.68241       -1.65177
H          4.25985       -2.90646       -2.10391
C          2.94413       -3.31254       -3.76768
H          1.85819       -3.31880       -3.96959
H          3.36536       -2.53464       -4.42931
C          3.53908       -4.66511       -4.12382
H          3.35432       -4.92699       -5.17659
H          3.10890       -5.46628       -3.50143
H          4.62941       -4.67638       -3.96459
H          3.52231        1.44845       -1.80428
H          3.27209        2.60332       -0.50667
C          4.97103        1.27944       -0.23426
C          5.70503        0.24778       -0.83736
H          5.26573       -0.28679       -1.68383
C          5.56833        2.01345        0.81477
C          4.88479        3.19614        1.44027
H          3.93114        2.92713        1.91691
H          4.65738        3.97132        0.69066
H          5.52200        3.65407        2.20895
C          6.97975       -0.09842       -0.39907
H          7.52531       -0.90814       -0.88942
C          6.84985        1.65087        1.24507
H          7.31034        2.21918        2.05802
C          7.55244        0.60081        0.65963
H          8.55087        0.34230        1.01992
H          3.63568        0.30018        1.87304
H          2.39440        1.55044        2.09520
C          1.75356       -0.44272        2.59330
C          2.17717       -1.77148        2.72339
H          3.11073       -2.07753        2.24468
C          0.58216       -0.03336        3.26322
C          0.11026        1.38988        3.20039
H         -0.05994        1.69873        2.15805
H          0.85135        2.08554        3.62717
H         -0.82580        1.52342        3.76088
C          1.43952       -2.70613        3.44333
H          1.78091       -3.74161        3.50611
C         -0.13608       -0.98006        4.00171
H         -1.04329       -0.66181        4.52381
C          0.26721       -2.31000        4.07938
H         -0.32917       -3.03149        4.64198
H         -3.89330        1.58697        0.97853
H         -2.37504        2.41436        1.33508
C         -3.30314        3.07125       -0.50164
H         -2.41035        3.26734       -1.12044
H         -4.07843        2.70896       -1.20035
C         -3.77027        4.37127        0.13726
H         -2.97322        4.74480        0.80476
H         -4.64344        4.17457        0.78640
C         -4.12421        5.45011       -0.87626
H         -3.24768        5.63497       -1.52204
H         -4.91586        5.07231       -1.54786
C         -4.57348        6.75426       -0.23766
H         -4.81958        7.51486       -0.99411
H         -3.78619        7.17177        0.41037
H         -5.46851        6.60562        0.38800
H         -3.19480        0.72614       -2.17895
H         -2.27420       -0.76902       -2.08589
C         -4.21365       -0.87591       -1.14882
C         -5.32043       -0.17734       -0.64614
H         -5.27468        0.91181       -0.58211
C         -4.30157       -2.27909       -1.29008
C         -3.19491       -3.08968       -1.90060
H         -2.25828       -3.00725       -1.33028
H         -2.98384       -2.76539       -2.93280
H         -3.46765       -4.15284       -1.93564
C         -6.48048       -0.83266       -0.24313
H         -7.32486       -0.25918        0.14641
C         -5.47622       -2.92161       -0.88022
H         -5.54081       -4.00798       -0.98575
C         -6.55516       -2.21884       -0.35096
H         -7.45578       -2.75220       -0.03776
H         -1.78865       -0.12509        2.13189
H         -3.33406       -0.58139        1.41459
C         -1.76037       -2.00398        1.10174
C         -0.56291       -2.28699        0.44014
H          0.00172       -1.45242        0.02063
C         -2.50484       -3.06596        1.65866
C         -3.78318       -2.81707        2.40435
H         -4.54500       -2.35105        1.75858
H         -3.62505       -2.14439        3.26284
H         -4.20318       -3.75751        2.78704
C         -0.09866       -3.59299        0.30512
H          0.83899       -3.78710       -0.22152
C         -2.02668       -4.37192        1.51055
H         -2.60619       -5.19534        1.93756
C         -0.83656       -4.64437        0.83918
H         -0.48885       -5.67530        0.73784
