56
Cat813.ts34.5.log	Energy: -1182835.3366711
C         -1.01569       -4.20366       -0.32755
H         -0.60714       -4.94155        0.36779
H         -2.10765       -4.13185       -0.31343
C         -0.33464       -4.00269       -1.56788
H          0.61044       -4.52107       -1.75292
H         -0.93415       -3.88196       -2.47729
H         -0.24023       -2.38540       -1.70624
Rh         0.05478       -2.36813       -0.10054
C         -1.88621        0.59123       -0.76991
C         -3.46338       -1.65282        0.08698
C         -1.88714       -0.28045        1.98342
C          1.89502        0.49712        0.68854
C          3.45767       -1.59150       -0.53226
C          1.72985       -0.03808       -2.15630
P          1.75876       -0.90158       -0.53994
P         -1.77292       -0.95788        0.27835
C          0.82489       -2.84021        1.55221
O          1.31077       -3.06603        2.57560
H         -0.91351        1.09388       -0.65210
H         -1.92403        0.22648       -1.80850
C         -3.00871        1.53465       -0.47863
C         -4.24956        1.40387       -1.11763
H         -4.38455        0.62552       -1.87311
C         -2.86501        2.55624        0.47066
H         -1.90418        2.68955        0.97498
C         -5.31355        2.25078       -0.81915
H         -6.27957        2.15480       -1.31813
C         -3.91730        3.41273        0.78233
H         -3.80741        4.21154        1.51798
C         -5.13433        3.24597        0.13339
F         -6.14698        4.06163        0.42453
H         -3.59659       -2.02152       -0.94121
H         -3.55803       -2.51137        0.76786
H         -4.25227       -0.92094        0.31854
H         -2.76732        0.36267        2.13766
H         -1.92900       -1.13399        2.67577
H         -0.97247        0.28474        2.21506
H          0.90240        0.97265        0.69878
H          2.01032        0.00185        1.66560
C          2.97278        1.50629        0.45085
C          4.25637        1.33534        0.98693
H          4.46190        0.47013        1.62243
C          2.73727        2.63734       -0.34279
H          1.74072        2.80237       -0.76138
C          5.27490        2.25077        0.73620
H          6.27455        2.12437        1.15578
C          3.74309        3.56367       -0.60423
H          3.56259        4.44826       -1.21760
C          5.00521        3.35533       -0.06214
F          5.97369        4.23669       -0.30623
H          3.65102       -2.04994        0.44853
H          3.50143       -2.38912       -1.28769
H          4.22611       -0.83352       -0.74935
H          1.76444       -0.80295       -2.94557
H          0.78550        0.51346       -2.26505
H          2.57809        0.65241       -2.27656
