106
Cat810.ts34.5.log	Energy: -1875905.9018895
C          1.67317       -3.72755        0.66941
H          1.77709       -4.41490       -0.17342
H          2.61342       -3.48741        1.17261
C          0.46353       -3.74643        1.41952
H         -0.36740       -4.37784        1.09281
H          0.51506       -3.63068        2.50823
H          0.05802       -2.18410        1.55258
Rh         0.54823       -2.01181        0.01460
C          1.79019        0.64034        2.15821
O          3.60660       -0.69869        0.83569
O          2.03520        0.83281       -0.60991
C         -1.31937        0.52169       -1.51898
O         -2.60651       -1.83980       -0.84528
O         -1.99795       -0.05689        0.96474
P         -1.35105       -0.88334       -0.34046
P          1.98385       -0.33353        0.58234
C          0.82244       -2.43251       -1.82049
O          1.02651       -2.65518       -2.93050
H          0.88453        0.21591        2.61774
H          2.64927        0.35679        2.78298
C          1.67353        2.12756        2.02912
C          2.77410        2.95450        2.28049
H          3.72177        2.50859        2.59186
C          0.47219        2.71263        1.61776
H         -0.38386        2.06566        1.40374
C          2.66855        4.33060        2.11751
H          3.53493        4.96878        2.30564
C          0.34759        4.09708        1.45228
C         -0.94609        4.70096        0.98854
H         -1.79668        4.34065        1.58713
H         -0.92440        5.79751        1.05849
H         -1.15841        4.43565       -0.06008
C          1.46365        4.89815        1.70806
H          1.38840        5.98122        1.57964
C          4.29779       -1.56666        0.03591
C          4.10864       -1.60967       -1.34372
H          3.39154       -0.93226       -1.81127
C          5.23148       -2.40241        0.65258
H          5.36303       -2.34223        1.73445
C          4.83171       -2.51454       -2.13149
C          4.59974       -2.55829       -3.61352
H          3.53656       -2.73470       -3.83827
H          4.87458       -1.60058       -4.08390
H          5.19071       -3.35194       -4.09122
C          5.95943       -3.29215       -0.12856
H          6.69024       -3.95237        0.34481
C          5.75698       -3.35610       -1.50819
H          6.32885       -4.06666       -2.11019
C          2.81527        1.94847       -0.78035
C          4.18572        1.96073       -0.52379
H          4.66870        1.07189       -0.12183
C          2.18420        3.07923       -1.30170
H          1.11255        3.04569       -1.50293
C          4.93900        3.11620       -0.75911
C          6.40491        3.12823       -0.43391
H          6.56568        3.27240        0.64787
H          6.88467        2.17682       -0.70764
H          6.92864        3.94124       -0.95642
C          2.93261        4.22490       -1.54038
H          2.43995        5.11404       -1.94116
C          4.30008        4.24938       -1.26928
H          4.87854        5.15685       -1.46027
H         -0.46592        1.11933       -1.15795
H         -0.97957        0.06341       -2.46150
C         -2.54958        1.35470       -1.73127
C         -3.26036        1.27408       -2.93299
H         -2.91769        0.59885       -3.72041
C         -3.01337        2.21820       -0.73425
H         -2.47533        2.26771        0.21296
C         -4.41579        2.02657       -3.11649
H         -4.97379        1.94316       -4.05183
C         -4.16868        2.98673       -0.90431
C         -4.63319        3.91249        0.18327
H         -4.49775        3.46239        1.17827
H         -4.06203        4.85582        0.17299
H         -5.69541        4.17183        0.06729
C         -4.86747        2.87829       -2.11110
H         -5.77888        3.46359       -2.26181
C         -3.86085       -1.48621       -1.28239
C         -4.72940       -0.73574       -0.49376
H         -4.39841       -0.38104        0.48268
C         -4.25876       -1.96389       -2.53017
H         -3.55997       -2.56516       -3.11435
C         -6.00635       -0.41411       -0.96367
C         -6.91510        0.44622       -0.13647
H         -6.82899        0.21035        0.93441
H         -6.64823        1.50871       -0.26027
H         -7.96679        0.32808       -0.43348
C         -5.53444       -1.65792       -2.99312
H         -5.85761       -2.02739       -3.96942
C         -6.39919       -0.88384       -2.22200
H         -7.39695       -0.64345       -2.59788
C         -2.11652       -0.60994        2.20976
C         -2.51619       -1.93407        2.38852
H         -2.73920       -2.54898        1.51405
C         -1.84314        0.20378        3.31144
H         -1.53875        1.23961        3.15428
C         -2.62443       -2.47585        3.67504
C         -3.02874       -3.91135        3.84605
H         -3.98507       -4.11832        3.34116
H         -2.27902       -4.58683        3.40337
H         -3.13810       -4.17700        4.90650
C         -1.96142       -0.33020        4.59034
H         -1.74753        0.29986        5.45695
C         -2.34197       -1.65960        4.77410
H         -2.42446       -2.06809        5.78432
