114
Cat806.ts34.5.log	Energy: -1785760.4034557
C         -0.40450        0.85552       -3.77169
H         -0.30655        0.05695       -4.51185
H         -1.31241        1.45702       -3.89171
C          0.78849        1.50740       -3.32642
H          1.75905        1.13609       -3.66786
H          0.77506        2.60047       -3.22634
H          0.62863        1.56647       -1.73696
Rh        -0.00336        0.06525       -1.82708
C         -2.62709        2.56893       -1.25865
C         -3.41171       -0.01341       -2.10278
C         -2.80207        0.42439        0.66771
C          0.80881       -1.34309        1.39656
C          2.78965       -1.66103       -0.83224
C          2.39763        0.80554        0.75691
P          1.46363       -0.54200       -0.14206
P         -2.09383        0.78826       -1.00514
C         -0.27495       -1.69836       -2.41162
O         -0.48718       -2.75959       -2.81826
H         -2.41082        2.78074       -2.31858
H         -3.71860        2.61781       -1.12232
C         -1.94369        3.55871       -0.36982
C         -2.58080        4.05389        0.77382
H         -3.60983        3.75542        0.99045
C         -0.62672        3.95483       -0.62496
H         -0.13041        3.58675       -1.52573
C         -1.90216        4.89972        1.64441
H         -2.40439        5.27405        2.53945
C          0.07951        4.78784        0.24926
C          1.51222        5.14009       -0.03099
H          1.64997        5.46272       -1.07443
H          1.86631        5.94808        0.62440
H          2.17450        4.27165        0.12191
C         -0.57845        5.25556        1.39190
H         -0.04786        5.91033        2.08852
H         -3.57304        0.70767       -2.91840
H         -2.92818       -0.88870       -2.55099
C         -4.70284       -0.37594       -1.44370
C         -5.73541        0.56283       -1.33114
H         -5.61864        1.53988       -1.80851
C         -4.86944       -1.65398       -0.86625
C         -3.81192       -2.71119       -1.00095
H         -2.84327       -2.40346       -0.57571
H         -3.62001       -2.95967       -2.05712
H         -4.11033       -3.63391       -0.48716
C         -6.90470        0.27728       -0.62984
H         -7.69468        1.02824       -0.55395
C         -6.04949       -1.92468       -0.16654
H         -6.17781       -2.91254        0.28477
C         -7.05839       -0.97208       -0.03499
H         -7.96811       -1.21222        0.52042
H         -3.84308        0.78846        0.67388
H         -2.88738       -0.67483        0.69709
C         -2.10546        0.87562        1.91996
C         -0.90321        1.58298        1.91571
H         -0.44758        1.83682        0.95746
C         -2.70681        0.55629        3.15843
C         -4.00154       -0.20009        3.20581
H         -4.81211        0.34527        2.69529
H         -4.31679       -0.38526        4.24186
H         -3.92164       -1.17173        2.69154
C         -0.28387        1.97439        3.10089
H          0.65169        2.53724        3.06295
C         -2.07248        0.95059        4.34027
H         -2.53778        0.69973        5.29776
C         -0.86888        1.65400        4.32136
H         -0.39623        1.95441        5.25954
H          1.67757       -1.63136        2.01283
H          0.33039       -0.50740        1.92867
C         -0.16911       -2.47776        1.30499
C         -1.21596       -2.54432        2.23701
H         -1.32357       -1.74654        2.97598
C         -0.05233       -3.50938        0.37127
H          0.75068       -3.48416       -0.36628
C         -2.10079       -3.61742        2.22948
H         -2.90568       -3.66146        2.96776
C         -0.94480       -4.58869        0.33530
C         -0.80048       -5.64251       -0.72266
H          0.19021       -6.12186       -0.67722
H         -1.56226       -6.42774       -0.61925
H         -0.89705       -5.19531       -1.72460
C         -1.96754       -4.63494        1.28494
H         -2.67172       -5.47144        1.27869
H          2.23184       -2.50594       -1.26645
H          3.14704       -1.09075       -1.69947
C          3.93205       -2.14143        0.01481
C          3.69453       -2.96025        1.12798
H          2.67478       -3.28377        1.34660
C          5.26697       -1.82630       -0.32554
C          5.60992       -1.07814       -1.58094
H          5.10754       -0.10274       -1.63993
H          5.31691       -1.65356       -2.47461
H          6.69120       -0.89662       -1.64170
C          4.73208       -3.40260        1.94513
H          4.51373       -4.03546        2.80843
C          6.29626       -2.27489        0.50978
H          7.32783       -2.02036        0.25143
C          6.04212       -3.04085        1.64453
H          6.86828       -3.37208        2.27816
H          1.65164        1.60649        0.87269
H          2.60602        0.42480        1.76411
C          3.64869        1.36756        0.14843
C          3.59382        2.02947       -1.08447
H          2.63606        2.08805       -1.60192
C          4.88115        1.29232        0.83279
C          5.00584        0.62137        2.17052
H          4.67350       -0.42737        2.13515
H          4.40436        1.13502        2.93846
H          6.05017        0.62351        2.51010
C          4.72598        2.60641       -1.65398
H          4.65276        3.11586       -2.61770
C          6.00877        1.87850        0.24564
H          6.96417        1.81963        0.77415
C          5.94384        2.52990       -0.98335
H          6.84302        2.97703       -1.41368
