60
Cat817.ts34.5.log	Energy: -1371559.3055191
C         -0.94098       -4.04548       -0.31375
H         -0.55269       -4.79022        0.38535
H         -2.01581       -3.85939       -0.24510
C         -0.27988       -3.88304       -1.56018
H          0.63368       -4.44588       -1.77033
H         -0.88180       -3.68512       -2.45263
H         -0.03232       -2.21628       -1.71929
Rh         0.21351       -2.23557       -0.11249
C         -1.91158        0.51580       -0.91571
O         -3.02626       -1.65861        0.39669
O         -1.56955        0.07785        1.63316
C          2.01656        0.53539        1.00428
O          3.28187       -0.98976       -0.75759
O          1.37476        0.56261       -1.51451
P          1.72616       -0.60057       -0.40006
P         -1.58996       -0.86805        0.26622
C          1.09017       -2.90246        1.43105
O          1.62718       -3.30254        2.36923
H         -0.95366        1.06087       -0.94587
H         -2.00611        0.01406       -1.89151
C         -3.07014        1.42970       -0.66614
C         -4.22956        1.34135       -1.44598
H         -4.27583        0.60916       -2.25681
C         -3.03338        2.38579        0.35861
H         -2.14062        2.46489        0.98091
C         -5.32977        2.16161       -1.20838
H         -6.23553        2.09695       -1.81404
C         -4.12366        3.21290        0.61028
H         -4.10415        3.95810        1.40772
C         -5.26315        3.08790       -0.17588
F         -6.31022        3.87766        0.06205
C         -4.21866       -1.11417        0.92978
H         -4.02684       -0.19867        1.50923
H         -4.92769       -0.87484        0.12367
H         -4.67011       -1.87039        1.58994
C         -1.26032       -0.50784        2.87762
H         -2.06897       -1.17520        3.22045
H         -0.32677       -1.09190        2.82377
H         -1.14061        0.30690        3.60494
H          1.01813        0.91893        1.26697
H          2.33866       -0.11310        1.83407
C          2.99114        1.64163        0.74437
C          4.36444        1.44708        0.92992
H          4.72570        0.47915        1.28398
C          2.55135        2.88217        0.26930
H          1.48361        3.04606        0.10608
C          5.27751        2.46226        0.66026
H          6.35015        2.32188        0.80522
C          3.45045        3.90837       -0.00554
H          3.11674        4.88068       -0.37233
C          4.80658        3.68333        0.19443
F          5.67506        4.66180       -0.06420
C          3.62801       -2.21487       -1.36462
H          2.83812       -2.96878       -1.20106
H          3.78202       -2.07799       -2.44763
H          4.56699       -2.56835       -0.91526
C          1.23344        0.23306       -2.87296
H          2.21143        0.00140       -3.32691
H          0.55989       -0.63264       -3.01005
H          0.80458        1.10543       -3.38480
