84
Cat821.ts34.5.log	Energy: -1663733.4574843
C          0.87209       -3.79609        0.66228
H          0.67257       -4.54764       -0.10541
H          1.93122       -3.68217        0.91515
C         -0.10896       -3.58371        1.67513
H         -1.07082       -4.10085        1.61478
H          0.22942       -3.43121        2.70648
H         -0.27421       -1.96347        1.74856
Rh        -0.13124       -1.97985        0.12592
C          1.51107        0.99026       -0.82106
C          2.82089       -0.27370        1.47301
C          3.04737       -1.43281       -1.13981
C         -2.26069        0.17949       -1.55146
C         -3.50915       -1.34066        0.56546
C         -1.86450        0.93959        1.24081
P         -1.91201       -0.53538        0.14395
P          1.80936       -0.67842       -0.01384
C         -0.45125       -2.54308       -1.64562
O         -0.63471       -2.85301       -2.74264
H          1.16375        0.73534       -1.83419
H          0.64566        1.40754       -0.28645
C          2.63414        1.97339       -0.85189
C          2.72066        2.96973        0.12888
H          1.93418        3.04458        0.88459
C          3.65388        1.89341       -1.81031
H          3.60980        1.12265       -2.58287
C          3.79487        3.85396        0.16940
H          3.87018        4.63037        0.93274
C          4.73799        2.76628       -1.78041
H          5.53864        2.70900       -2.52006
C          4.79676        3.73520       -0.78524
F          5.83376        4.57277       -0.75128
C          2.32192       -0.64179        2.72763
C          4.05992        0.38479        1.41067
C          4.23925        0.33141        3.82150
C          4.75903        0.68656        2.57627
C          3.02069       -0.33933        3.89595
H          1.36856       -1.17525        2.77565
H          2.61214       -0.63446        4.86540
H          4.79085        0.57117        4.73395
H          5.71852        1.20499        2.50942
H          4.48884        0.65730        0.44522
C          4.21418       -2.04835       -0.67106
C          2.74934       -1.52063       -2.50872
C          4.78147       -2.76327       -2.91128
C          3.61189       -2.16799       -3.38692
C          5.07261       -2.70806       -1.55101
H          4.45994       -2.01315        0.39211
H          5.97885       -3.18109       -1.16472
H          5.45692       -3.27651       -3.59960
H          3.36230       -2.21919       -4.44947
H          1.82069       -1.09393       -2.89639
H         -1.28529        0.55777       -1.88948
H         -2.48482       -0.69827       -2.17645
C         -3.31585        1.22901       -1.67340
C         -4.67788        0.89703       -1.67864
H         -4.97860       -0.15201       -1.63736
C         -2.96262        2.58314       -1.72849
H         -1.90579        2.86217       -1.72206
C         -5.65789        1.88498       -1.71344
H         -6.72054        1.63582       -1.71320
C         -3.92970        3.58334       -1.77091
H         -3.66019        4.64014       -1.81102
C         -5.27003        3.21940       -1.75459
F         -6.20475        4.16897       -1.78701
C         -3.96103       -2.36570       -0.27986
C         -4.24253       -1.04845        1.71925
C         -5.87813       -2.73442        1.14231
C         -5.41868       -1.74383        2.00521
C         -5.14189       -3.04570       -0.00302
H         -3.37037       -2.64727       -1.15621
H         -5.48334       -3.83448       -0.67774
H         -6.80182       -3.27367        1.36503
H         -5.97891       -1.50369        2.91219
H         -3.89581       -0.27475        2.40658
C         -0.70486        1.16879        1.98842
C         -2.92425        1.85545        1.34793
C         -1.63327        3.20474        2.88695
C         -2.80434        2.97870        2.16296
C         -0.58344        2.29250        2.80388
H          0.10675        0.44287        1.92771
H          0.33420        2.44448        3.37793
H         -1.54518        4.08894        3.52308
H         -3.63635        3.68357        2.23095
H         -3.85408        1.69150        0.80205
