88
Cat833.ts34.5.log	Energy: -3005770.3217899
C          1.71887       -3.70098        0.66730
H          1.76041       -4.50649       -0.06961
H          2.69365       -3.28348        0.93427
C          0.67987       -3.71748        1.63793
H         -0.10053       -4.48069        1.58527
H          0.90695       -3.40527        2.66335
H          0.08594       -2.18993        1.60872
Rh         0.27926       -2.24255        0.00112
C          1.72512        0.55192        1.68518
O          3.30585       -0.64183       -0.04351
O          1.33427        0.71306       -1.06293
C         -2.93930       -1.93046       -1.43023
O         -2.77839       -1.55159        1.18375
O         -1.73139        0.30012       -0.28111
P         -1.76290       -1.35997       -0.13509
P          1.64907       -0.41738        0.11678
C          0.28072       -2.92800       -1.77921
O          0.30250       -3.30000       -2.86572
H          0.69737        0.92985        1.80085
H          1.83631       -0.24015        2.44556
C          2.73321        1.64659        1.88192
C          4.10124        1.36471        1.99050
H          4.44231        0.33063        1.93253
C          2.32339        2.98171        1.97399
H          1.26092        3.22455        1.90223
C          5.03444        2.38482        2.14506
H          6.10276        2.17498        2.22302
C          3.24305        4.01461        2.12508
H          2.93088        5.05938        2.16562
C          4.59362        3.70140        2.19992
F          5.48549        4.68216        2.33291
C          3.84457       -1.46403       -0.98951
C          4.96136       -2.22033       -0.62944
H          5.35236       -2.13728        0.38643
C          3.32914       -1.54991       -2.28461
H          2.46819       -0.94388       -2.56985
C          5.55765       -3.06941       -1.55463
H          6.42997       -3.66534       -1.28202
C          3.91699       -2.40993       -3.20858
H          3.51194       -2.49351       -4.21802
C          5.02669       -3.16730       -2.84128
Cl         5.75870       -4.23698       -3.99147
C          1.78317        2.00668       -1.10189
C          3.13634        2.30375       -1.27189
H          3.86245        1.49510       -1.35685
C          0.84237        3.03014       -0.99952
H         -0.20959        2.77095       -0.87214
C          3.55161        3.63036       -1.29042
H          4.60891        3.87884       -1.39218
C          1.25445        4.35891       -1.03230
H          0.52986        5.16955       -0.94013
C          2.61051        4.65133       -1.15998
Cl         3.13806        6.30137       -1.12554
H         -2.42354       -1.71038       -2.37873
H         -2.90271       -3.02635       -1.31403
C         -4.35459       -1.42861       -1.44913
C         -5.26794       -1.80178       -0.45494
H         -4.94771       -2.46978        0.34572
C         -4.79457       -0.57928       -2.47083
H         -4.10194       -0.28449       -3.26232
C         -6.57005       -1.31176       -0.45742
H         -7.28739       -1.59128        0.31629
C         -6.09202       -0.07796       -2.48689
H         -6.43302        0.60696       -3.26485
C         -6.96368       -0.44574       -1.47025
F         -8.20435        0.03830       -1.46744
C         -2.29764       -1.47673        2.45954
C         -2.37056       -2.60829        3.27093
H         -2.80013       -3.52479        2.86294
C         -1.74343       -0.29402        2.95364
H         -1.69193        0.58441        2.30852
C         -1.88771       -2.56297        4.57505
H         -1.93741       -3.44277        5.21847
C         -1.25230       -0.24655        4.25482
H         -0.81051        0.67005        4.64909
C         -1.32328       -1.38292        5.05995
Cl        -0.70420       -1.32914        6.67573
C         -2.75608        1.14012       -0.62741
C         -3.88178        1.30133        0.18231
H         -3.98202        0.71670        1.09684
C         -2.62217        1.87521       -1.80496
H         -1.72988        1.73323       -2.41780
C         -4.89436        2.16774       -0.21326
H         -5.79463        2.28057        0.39239
C         -3.62927        2.75266       -2.19586
H         -3.54297        3.32416       -3.12135
C         -4.76805        2.88324       -1.40394
Cl        -6.05581        3.92016       -1.91845
