106
Cat801.ts34.5.log	Energy: -1875900.2103096
C          1.89286       -4.26108       -0.66954
H          1.74595       -4.83994       -1.58469
H          2.93486       -4.04643       -0.41853
C          0.93119       -4.39345        0.36908
H          0.03299       -4.99630        0.21155
H          1.28012       -4.39739        1.40745
H          0.53903       -2.84940        0.79801
Rh         0.67121       -2.48703       -0.77855
C          2.29960       -0.28236        1.51174
O          3.83792       -1.73603       -0.24460
O          2.75694        0.33113       -1.10979
C         -2.23980       -0.80009       -1.92200
O         -2.40986       -2.22158        0.36450
O         -1.06063       -0.01817        0.48298
P         -1.24204       -1.37478       -0.46582
P          2.33735       -1.01482       -0.21011
C          0.43480       -2.72650       -2.64310
O          0.29117       -2.85886       -3.77793
H          1.30707       -0.56856        1.88623
H          3.04970       -0.84474        2.09000
C          2.49513        1.19587        1.65504
C          3.76585        1.78092        1.63640
H          4.65529        1.15707        1.53421
C          1.37587        2.02406        1.79411
H          0.38458        1.56798        1.81606
C          3.89583        3.16383        1.74242
H          4.89214        3.61302        1.72854
C          1.48812        3.41322        1.89567
C          0.26522        4.27661        2.00187
H         -0.62585        3.68563        2.25544
H          0.39176        5.06435        2.76020
H          0.05539        4.77505        1.04122
C          2.76987        3.97594        1.86658
H          2.88637        5.06053        1.94781
C          5.00779       -1.14388        0.15008
C          5.57471       -1.50953        1.36981
H          5.07490       -2.26125        1.98439
C          5.65004       -0.20826       -0.66351
H          5.19647        0.06535       -1.61554
C          6.76464       -0.91603        1.78772
H          7.19573       -1.20366        2.75048
C          6.83613        0.37436       -0.23183
H          7.32600        1.11488       -0.87044
C          7.41395        0.04058        1.00119
C          8.70245        0.67199        1.44274
H          8.89333        0.49405        2.51042
H          8.69516        1.75977        1.27533
H          9.55839        0.26382        0.88014
C          1.95175        1.15783       -1.83563
C          1.97628        2.52189       -1.54269
H          2.59173        2.87340       -0.71351
C          1.18270        0.69151       -2.90449
H          1.19918       -0.36709       -3.15700
C          1.22116        3.40688       -2.30825
H          1.25120        4.47316       -2.06710
C          0.41928        1.58909       -3.64741
H         -0.18030        1.20964       -4.47996
C          0.41654        2.96103       -3.36339
C         -0.43720        3.90926       -4.15482
H         -0.19175        4.95636       -3.92744
H         -1.50734        3.76126       -3.93291
H         -0.31066        3.75944       -5.23808
H         -1.81383        0.16974       -2.22133
H         -1.97507       -1.51656       -2.71324
C         -3.72817       -0.74596       -1.74533
C         -4.48823       -1.91133       -1.91566
H         -3.99066       -2.84491       -2.18895
C         -4.38495        0.43613       -1.39658
H         -3.80781        1.35495       -1.27724
C         -5.86565       -1.88482       -1.72769
H         -6.45038       -2.79749       -1.86593
C         -5.76866        0.47694       -1.18831
C         -6.42559        1.75994       -0.76947
H         -6.14196        2.02050        0.26349
H         -6.10815        2.59855       -1.40821
H         -7.52150        1.68949       -0.81394
C         -6.50324       -0.69988       -1.35779
H         -7.58596       -0.68793       -1.20520
C         -2.93367       -1.92622        1.58967
C         -4.30317       -1.68746        1.69613
H         -4.91815       -1.71814        0.79571
C         -2.12453       -1.87163        2.72544
H         -1.05307       -2.05621        2.63087
C         -4.85202       -1.38280        2.93848
H         -5.92575       -1.18723        3.00941
C         -2.68885       -1.55495        3.95816
H         -2.04413       -1.49890        4.83969
C         -4.06025       -1.30370        4.09108
C         -4.66503       -0.99272        5.42966
H         -5.56468       -0.36803        5.33024
H         -3.95352       -0.46542        6.08179
H         -4.96537       -1.91585        5.95349
C         -1.77526        1.15363        0.47331
C         -2.73906        1.40617        1.44972
H         -2.95507        0.65365        2.20739
C         -1.46283        2.13024       -0.46860
H         -0.66707        1.94602       -1.18912
C         -3.41981        2.61976        1.43590
H         -4.17814        2.80665        2.20162
C         -2.15994        3.33609       -0.47249
H         -1.90569        4.09011       -1.22244
C         -3.15996        3.60078        0.46871
C         -3.93267        4.88711        0.45223
H         -4.97661        4.71788        0.14023
H         -3.49126        5.61325       -0.24465
H         -3.96516        5.35012        1.45042
