84
Cat819.ts34.5.log	Energy: -1568781.9377410
C         -0.94488       -3.97744       -0.70984
H         -0.70781       -4.80996       -0.04203
H         -2.01639       -3.82363       -0.87218
C         -0.04139       -3.70283       -1.78309
H          0.89419       -4.26521       -1.85570
H         -0.45966       -3.45201       -2.76459
H          0.12907       -2.08066       -1.73201
Rh         0.16528       -2.24012       -0.11696
C         -2.29843       -0.09471       -1.39051
O         -2.99851       -1.17767        0.89144
O         -1.07140        0.52413        1.06915
C          2.24866        0.07786        1.42659
O          3.25300       -0.99120       -0.77054
O          1.28398        0.64426       -1.08571
P          1.74898       -0.64868       -0.18248
P         -1.56585       -0.76391        0.16949
C          0.74079       -2.99371        1.53189
O          1.05942       -3.41128        2.55750
H         -1.42158        0.30809       -1.92160
H         -2.57830       -1.02046       -1.92357
C         -3.43476        0.88467       -1.39132
C         -4.68364        0.56649       -0.83593
H         -4.82354       -0.41132       -0.37470
C         -3.28042        2.14433       -1.98314
H         -2.32651        2.40391       -2.44992
C         -5.72755        1.48627       -0.83934
H         -6.69948        1.24774       -0.40321
C         -4.31545        3.07665       -1.99635
H         -4.19599        4.05978       -2.45510
C         -5.52897        2.73576       -1.41523
F         -6.52666        3.62035       -1.41748
C         -3.00428       -1.74821        2.20439
H         -2.07022       -1.45290        2.71810
C         -3.06269       -3.25939        2.11898
H         -2.18080       -3.64444        1.59196
H         -3.96660       -3.57492        1.57508
H         -3.08898       -3.70158        3.12624
C         -4.19086       -1.15650        2.93819
H         -4.14127       -0.05858        2.94914
H         -5.12871       -1.44911        2.44099
H         -4.22508       -1.51690        3.97714
C         -1.83136        1.69471        1.38953
H         -2.87505        1.54699        1.06516
C         -1.22911        2.87513        0.65644
H         -1.21522        2.69253       -0.42433
H         -0.19134        3.03975        0.98055
H         -1.81168        3.78925        0.84474
C         -1.79626        1.87214        2.89481
H         -2.21940        0.99755        3.40749
H         -0.75883        1.99935        3.24140
H         -2.37093        2.76138        3.19425
H          1.28889        0.23549        1.93993
H          2.76893       -0.74342        1.94761
C          3.05845        1.33857        1.41190
C          4.33723        1.39142        0.83899
H          4.75551        0.48774        0.39267
C          2.54119        2.50969        1.97804
H          1.55284        2.48508        2.44253
C          5.06404        2.57795        0.81063
H          6.05790        2.62862        0.36187
C          3.25730        3.70479        1.96430
H          2.85597        4.61918        2.40478
C          4.51253        3.72417        1.37164
F          5.20613        4.86207        1.34546
C          3.47106       -2.03167       -1.73138
H          2.53031       -2.19427       -2.28860
C          3.83531       -3.31193       -1.00864
H          3.00956       -3.61479       -0.34797
H          4.74038       -3.16243       -0.39985
H          4.02818       -4.12322       -1.72701
C          4.54992       -1.55337       -2.68030
H          4.25164       -0.62349       -3.18506
H          5.48531       -1.36325       -2.13174
H          4.75100       -2.31471       -3.44857
C          2.11492        1.42363       -1.95061
H          3.16899        1.17331       -1.75065
C          1.88792        2.89038       -1.65399
H          2.14909        3.12136       -0.61299
H          0.83275        3.15833       -1.81659
H          2.50937        3.51335       -2.31452
C          1.77572        1.05485       -3.38319
H          1.92441       -0.02082       -3.55735
H          0.72137        1.28938       -3.59820
H          2.40576        1.61207       -4.09298
