60
Cat89.ts34.5.log	Energy: -965783.0989477
C          0.86901       -2.42946       -1.53828
H          0.43409       -2.61126       -2.52454
H          1.96185       -2.35209       -1.54380
C          0.21834       -2.98941       -0.40497
H         -0.71064       -3.54983       -0.53478
H          0.83442       -3.36869        0.41785
H         -0.01919       -1.72710        0.69693
Rh        -0.19385       -0.79621       -0.62894
C          3.08839       -0.87672        0.75775
C          2.74808        0.99197       -1.44509
C          1.74224        1.72174        1.16802
C         -2.67799        1.70738       -0.33990
C         -3.49961       -0.86865        0.62266
C         -1.71211        0.74976        2.21186
P         -1.97074        0.17700        0.47032
P          1.82259        0.28600       -0.00509
C         -0.85577       -0.21675       -2.28326
O         -1.27806        0.14561       -3.29775
H          2.89260       -1.81601        0.21138
C          4.56465       -0.54579        0.56551
H          5.18564       -1.33660        1.01846
H          4.84286       -0.48373       -0.49590
H          4.84781        0.40389        1.04241
C          2.75345       -1.13334        2.22256
H          1.68852       -1.37709        2.35434
H          3.34227       -1.97990        2.61034
H          2.98243       -0.25962        2.85319
H          2.95527        0.13353       -2.10581
C          1.97405        2.05741       -2.20363
H          1.76372        2.93600       -1.57338
H          1.01311        1.66573       -2.56604
H          3.72343        1.38445       -1.11626
H          2.54581        2.41044       -3.07565
H          1.30097        1.31531        2.09220
C          2.99512        2.52657        1.47620
H          3.47596        2.90719        0.56226
H          3.74263        1.93339        2.02217
H          0.96281        2.37286        0.74109
H          2.75179        3.39935        2.10302
H         -2.95290        1.33159       -1.34152
C         -3.92745        2.27925        0.31975
H         -4.32158        3.11276       -0.28396
H         -4.73352        1.53835        0.41861
H         -3.71140        2.68375        1.32110
C         -1.60658        2.77464       -0.52232
H         -0.70908        2.35813       -0.99982
H         -1.98434        3.59531       -1.15250
H         -1.31114        3.21527        0.44399
H         -4.06199       -0.70105       -0.31150
C         -3.24503       -2.35591        0.79802
H         -2.65065       -2.57362        1.69776
H         -2.68509       -2.74656       -0.06259
H         -4.12092       -0.47132        1.44318
H         -4.19455       -2.90763        0.87874
H         -2.64914        1.20626        2.57046
C         -1.24850       -0.33166        3.17258
H         -0.35795       -0.84645        2.78218
H         -2.02645       -1.09261        3.33521
H         -0.96406        1.55610        2.15685
H         -0.99495        0.09484        4.15539
