72
Cat91.ts34.5.log	Energy: -1064365.3093685
C          0.73557       -2.82155        0.81527
H          0.25943       -3.61992        0.23995
H          1.82483       -2.90343        0.88890
C          0.01711       -2.23958        1.89093
H         -0.99976       -2.57578        2.10844
H          0.57128       -1.94918        2.79212
H         -0.06013       -0.64322        1.63924
Rh        -0.03712       -0.94818        0.03877
C          2.59482        0.43291        1.91763
C          3.50589       -0.92034       -0.53478
C          2.22378        1.82049       -0.70754
C         -2.21509        1.29197       -1.60964
C         -3.53062       -0.94871       -0.23408
C         -2.37627        1.36505        1.38226
P         -2.05843        0.21890       -0.07105
P          2.09886        0.14612        0.12602
C         -0.30806       -1.51766       -1.71530
O         -0.50924       -1.81329       -2.81661
H          2.25679       -0.51813        2.36727
C          4.06534        0.59287        2.28805
H          4.16165        0.65781        3.38483
H          4.67215       -0.26326        1.96200
H          4.51252        1.50573        1.86962
C          1.73765        1.54117        2.52241
H          0.67665        1.40443        2.26380
H          1.82441        1.54004        3.62082
H          2.04973        2.53702        2.17132
H          3.68334       -1.60072        0.31941
C          3.05979       -1.78046       -1.71394
H          3.87840       -2.45248       -2.01921
H          2.18376       -2.38933       -1.46133
H          2.79395       -1.16538       -2.58697
C          4.82586       -0.23119       -0.87180
H          5.20411        0.41253       -0.06920
H          5.59669       -0.99168       -1.07998
H          4.73081        0.38084       -1.78109
H          1.33799        2.31328       -0.27033
C          3.41129        2.74043       -0.44050
H          3.22482        3.71933       -0.91364
H          3.56638        2.92509        0.63090
H          4.34997        2.35421       -0.85708
C          1.96479        1.65822       -2.20255
H          1.10982        0.99104       -2.38939
H          1.74980        2.63415       -2.66656
H          2.84152        1.23653       -2.71748
H         -1.71663        0.64265       -2.34916
C         -3.59540        1.61965       -2.16859
H         -3.47718        2.16661       -3.11864
H         -4.18458        0.71883       -2.38872
H         -4.18637        2.26090       -1.49876
C         -1.36020        2.54437       -1.46336
H         -0.38818        2.30096       -1.01713
H         -1.17633        3.00265       -2.44775
H         -1.84532        3.30446       -0.83294
H         -3.50181       -1.16326       -1.31905
C         -3.29157       -2.27218        0.48444
H         -4.10023       -2.98186        0.24540
H         -2.33068       -2.71237        0.18526
H         -3.28156       -2.14029        1.57802
C         -4.91406       -0.40949        0.11844
H         -5.15198        0.54418       -0.36659
H         -5.68303       -1.13784       -0.18770
H         -5.02076       -0.27384        1.20527
H         -1.42848        1.93234        1.39302
C         -3.51666        2.37589        1.29334
H         -3.45113        3.07167        2.14636
H         -3.47968        2.98092        0.37883
H         -4.50322        1.89770        1.34264
C         -2.45406        0.58629        2.69187
H         -1.61594       -0.11528        2.80154
H         -2.42960        1.28052        3.54718
H         -3.39003        0.01129        2.76465
