76
Cat98.ts34.5.log	Energy: -1597065.7332445
C         -0.53199       -2.62917       -2.27349
H         -0.53456       -3.66714       -1.92877
H         -1.41096       -2.35221       -2.86549
C          0.72547       -2.03978       -2.61795
H          1.65085       -2.59426       -2.43360
H          0.77819       -1.42537       -3.52542
H          0.62199       -0.59340       -1.94675
Rh        -0.01334       -1.32890       -0.65460
C         -2.17793        1.06922       -2.25012
C         -3.48532       -0.66246       -0.36387
C         -1.86244        1.36513        0.71075
C          1.45794        0.44746        2.17333
C          3.28107       -1.02554        0.46379
C          2.09547        1.38550       -0.50311
P          1.66627       -0.14589        0.41506
P         -1.84753        0.13562       -0.65396
C         -0.38524       -2.63846        0.65540
O         -0.67130       -3.44937        1.42458
H         -2.36111        0.20543       -2.91680
C         -3.41706        1.95464       -2.28246
H         -3.53164        2.40123       -3.28352
H         -4.33269        1.38768       -2.06686
H         -3.35447        2.78265       -1.56000
C         -0.93880        1.78445       -2.78124
H         -0.04434        1.14959       -2.70980
H         -1.08678        2.05669       -3.83808
H         -0.71788        2.71409       -2.23661
C         -4.59013        0.04015        0.14139
H         -4.49068        1.09499        0.40647
C         -3.63928       -2.02146       -0.65978
H         -2.77418       -2.58322       -1.01680
C         -5.81576       -0.58952        0.33233
H         -6.67972       -0.05402        0.73024
C         -4.86182       -2.66499       -0.48265
H         -4.98838       -3.72557       -0.70702
C         -5.93639       -1.93736        0.01083
F         -7.10683       -2.54407        0.19238
C         -1.57421        2.72631        0.56277
H         -1.39978        3.14799       -0.42633
C         -2.06640        0.87038        2.01111
H         -2.28456       -0.19156        2.15245
C         -1.48595        3.57130        1.67058
H         -1.26269        4.63422        1.55984
C         -1.98986        1.69918        3.12300
H         -2.14848        1.31714        4.13309
C         -1.69310        3.04700        2.93825
F         -1.60993        3.84694        3.99930
H          0.62284        1.16457        2.09459
C          0.99814       -0.70230        3.05875
H          0.84484       -0.34303        4.08856
H          0.05420       -1.13581        2.70640
H          1.74996       -1.50730        3.09508
C          2.67544        1.14547        2.76495
H          3.05543        1.95765        2.12866
H          2.41368        1.58218        3.74213
H          3.49705        0.43244        2.93061
C          4.51244       -0.35503        0.50240
H          4.54184        0.73601        0.46664
C          3.27772       -2.42530        0.48553
H          2.31901       -2.94756        0.41850
C          5.70920       -1.06150        0.56951
H          6.67487       -0.55316        0.59274
C          4.46647       -3.14611        0.56639
H          4.47533       -4.23737        0.58639
C          5.66866       -2.45136        0.60652
F          6.81105       -3.13016        0.67056
C          2.73865        1.26496       -1.74481
H          3.05679        0.27919       -2.09462
C          1.69265        2.65760       -0.08510
H          1.18319        2.79086        0.86936
C          2.97283        2.37553       -2.54653
H          3.47373        2.28965       -3.51248
C          1.91495        3.78138       -0.88078
H          1.60227        4.77707       -0.56053
C          2.55158        3.62588       -2.10358
F          2.76730        4.69305       -2.86903
