92
Cat97.ts34.5.log	Energy: -1635359.8687706
C         -0.59510       -2.68682       -2.31072
H         -0.63937       -3.72425       -1.96670
H         -1.45613       -2.37994       -2.91449
C          0.68857       -2.14365       -2.64018
H          1.59083       -2.73105       -2.44332
H          0.77604       -1.53509       -3.54901
H          0.62225       -0.69071       -1.97707
Rh        -0.04887       -1.40392       -0.69030
C         -2.12603        1.03541       -2.33331
C         -3.50320       -0.64473       -0.44715
C         -1.85203        1.35823        0.62477
C          1.40366        0.38060        2.13628
C          3.23151       -1.15010        0.47932
C          2.11298        1.26964       -0.53585
P          1.63992       -0.23993        0.39093
P         -1.84664        0.11109       -0.72087
C         -0.45045       -2.70059        0.62090
O         -0.75255       -3.50684        1.39083
H         -2.31846        0.16979       -2.99487
C         -3.34398        1.94836       -2.39370
H         -3.43308        2.38972       -3.40008
H         -4.27503        1.40363       -2.18669
H         -3.27309        2.77945       -1.67537
C         -0.86309        1.71805       -2.85033
H          0.01685        1.06652       -2.75417
H         -0.98496        1.98096       -3.91317
H         -0.63104        2.64812       -2.31106
C         -4.60635        0.08792        0.02680
H         -4.48937        1.14528        0.27530
C         -3.68881       -2.00198       -0.71299
H         -2.83263       -2.59298       -1.04414
C         -5.84160       -0.51204        0.20859
H         -6.69851        0.05131        0.58313
C         -4.92808       -2.62020       -0.54285
H         -5.02496       -3.68447       -0.75843
C         -6.01621       -1.87398       -0.08053
O         -7.25065       -2.37271        0.12644
C         -7.48043       -3.72963       -0.12897
H         -6.85264       -4.37955        0.50590
H         -8.53602       -3.91978        0.10339
H         -7.29658       -3.98580       -1.18747
C         -2.09178        0.88949        1.93179
H         -2.34782       -0.16268        2.08309
C         -1.52201        2.70506        0.47475
H         -1.31788        3.11351       -0.51446
C         -2.00229        1.72672        3.02904
H         -2.18663        1.35933        4.04032
C         -1.41891        3.56364        1.57479
H         -1.15589        4.60865        1.40734
C         -1.65498        3.07740        2.86261
O         -1.57695        3.81700        3.98724
C         -1.21836        5.16469        3.88109
H         -1.94496        5.73837        3.27843
H         -1.20618        5.57015        4.90077
H         -0.21459        5.28901        3.43617
H          0.58349        1.11134        2.03255
C          0.90634       -0.74907        3.02669
H          0.73674       -0.37395        4.04844
H         -0.03744       -1.17036        2.65925
H          1.64374       -1.56608        3.08709
C          2.62161        1.06419        2.74353
H          3.02703        1.86103        2.10349
H          2.34883        1.51685        3.71078
H          3.42784        0.33910        2.93175
C          4.48012       -0.50711        0.54081
H          4.53333        0.58295        0.49544
C          3.20937       -2.54561        0.50945
H          2.24436       -3.05379        0.42438
C          5.65424       -1.23575        0.64038
H          6.62799       -0.74379        0.68108
C          4.38174       -3.29303        0.62258
H          4.31918       -4.38124        0.64535
C          5.61574       -2.63773        0.68930
O          6.80520       -3.26165        0.78918
C          6.83094       -4.66039        0.84333
H          6.40839       -5.11508       -0.07009
H          7.88509       -4.95291        0.92968
H          6.28009       -5.04789        1.71850
C          2.77699        1.12652       -1.76749
H          3.08935        0.13205       -2.09801
C          1.72591        2.55233       -0.15136
H          1.19934        2.71022        0.79022
C          3.03633        2.21897       -2.57628
H          3.55170        2.10969       -3.53236
C          1.97453        3.66523       -0.95958
H          1.64962        4.64907       -0.61946
C          2.63034        3.50395       -2.18217
O          2.91444        4.50713       -3.03639
C          2.51298        5.80552       -2.70514
H          2.98798        6.15827       -1.77232
H          2.82986        6.45494       -3.53105
H          1.41642        5.88030       -2.59325
