76
Cat99.ts34.5.log	Energy: -2501377.8755992
C         -0.51037       -2.67709       -2.35264
H         -0.53882       -3.71447       -2.00754
H         -1.36246       -2.38925       -2.97765
C          0.76555       -2.10215       -2.64706
H          1.67697       -2.66660       -2.42687
H          0.86030       -1.48647       -3.55018
H          0.65682       -0.65558       -1.97620
Rh        -0.04018       -1.38386       -0.71177
C         -2.10672        1.07475       -2.36270
C         -3.50701       -0.65569       -0.54306
C         -1.87706        1.32055        0.61161
C          1.38614        0.32794        2.18587
C          3.22414       -1.15588        0.50445
C          2.10599        1.28771       -0.46184
P          1.62667       -0.24646        0.42586
P         -1.84537        0.11351       -0.77114
C         -0.50212       -2.68419        0.57915
O         -0.84500       -3.48646        1.33340
H         -2.28666        0.22504       -3.04806
C         -3.32619        1.98601       -2.41830
H         -3.40084        2.44986       -3.41519
H         -4.25936        1.43501       -2.23958
H         -3.26905        2.80151       -1.68142
C         -0.83604        1.77075       -2.84227
H          0.04067        1.11334       -2.75753
H         -0.94575        2.06679       -3.89728
H         -0.60914        2.68409       -2.27321
C         -3.68031       -2.00438       -0.87032
H         -2.81808       -2.57845       -1.21467
C         -4.61079        0.05877       -0.05428
H         -4.49946        1.10644        0.23392
C         -4.91970       -2.62575       -0.73890
H         -5.04774       -3.67920       -0.99250
C         -5.85315       -0.54931        0.09117
H         -6.70855        0.00794        0.47659
C         -6.00174       -1.89167       -0.25897
Cl        -7.54521       -2.65467       -0.07989
C         -2.12059        0.80751        1.89769
H         -2.36640       -0.25138        2.01539
C         -1.55768        2.67762        0.49598
H         -1.35576        3.11572       -0.48081
C         -2.04405        1.61210        3.02631
H         -2.23161        1.20185        4.01988
C         -1.46960        3.49771        1.62147
H         -1.21651        4.55476        1.52178
C         -1.70604        2.96022        2.88334
Cl        -1.57913        3.96630        4.28629
H          0.56471        1.05911        2.09519
C          0.88694       -0.82385        3.04699
H          0.71504       -0.47235        4.07649
H         -0.05539       -1.23841        2.66866
H          1.62488       -1.64106        3.09311
C          2.59967        1.00005        2.81459
H          3.01086        1.80998        2.19517
H          2.31825        1.43493        3.78704
H          3.40391        0.27151        2.99713
C          4.46623       -0.50959        0.57391
H          4.51838        0.58096        0.54729
C          3.19444       -2.55472        0.51782
H          2.22835       -3.05995        0.42734
C          5.64768       -1.23886        0.66141
H          6.61501       -0.73605        0.70841
C          4.36746       -3.29789        0.61954
H          4.34128       -4.38865        0.63326
C          5.59003       -2.63263        0.68921
Cl         7.05696       -3.54455        0.79802
C          1.71332        2.56045       -0.03768
H          1.18864        2.69167        0.90876
C          2.77326        1.17326       -1.69083
H          3.08738        0.18812       -2.04628
C          1.96286        3.68867       -0.81775
H          1.64905        4.67853       -0.48179
C          3.03469        2.28874       -2.47635
H          3.55301        2.19266       -3.43172
C          2.61908        3.54720       -2.03680
Cl         2.92131        4.94054       -3.01795
