76
Cat96.ts34.5.log	Energy: -1348090.0637157
C         -0.87846       -1.68535       -2.44789
H         -0.70449       -2.75234       -2.61096
H         -1.92506       -1.38029       -2.54574
C          0.14873       -0.77009       -2.80174
H          1.11566       -1.13783       -3.15740
H         -0.14055        0.19419       -3.23470
H          0.29995        0.23249       -1.45476
Rh         0.05928       -1.11274       -0.59830
C         -1.72994        0.52591        2.07624
C         -2.11038        1.61512       -0.60995
C         -3.42815       -0.80710        0.16527
C          2.37527       -0.86165        2.22291
C          3.46912       -0.52453       -0.42650
C          1.85011        1.55206        0.69995
P          1.89867       -0.27844        0.50665
P         -1.79881        0.04172        0.27098
C          0.11393       -2.91638       -0.05448
O          0.09803       -4.04219        0.20666
H         -0.81121        1.13616        2.11993
C         -2.90326        1.34536        2.59149
H         -2.71031        1.67441        3.62600
H         -3.08662        2.24264        1.98250
H         -3.82645        0.74628        2.60384
C         -1.50786       -0.73065        2.90968
H         -0.67088       -1.32696        2.51722
H         -1.29581       -0.46697        3.95824
H         -2.40452       -1.37104        2.90192
C         -1.52410        2.81535       -0.18599
C         -2.79277        1.60161       -1.83702
C         -2.32594        3.95044       -2.16596
C         -2.89948        2.75753       -2.60612
C         -1.63743        3.97178       -0.95454
H         -0.95303        2.85360        0.74403
H         -1.17359        4.89572       -0.60095
H         -2.41317        4.85846       -2.76726
H         -3.43803        2.72550       -3.55659
H         -3.25234        0.67571       -2.19190
C         -4.64933       -0.11651        0.16384
C         -3.44570       -2.20625        0.13473
C         -5.86073       -2.20728        0.12019
C         -4.65351       -2.90282        0.11988
C         -5.85575       -0.81217        0.13836
H         -4.65623        0.97563        0.17052
H         -6.79923       -0.26062        0.13298
H         -6.80820       -2.75143        0.09955
H         -4.64818       -3.99523        0.09785
H         -2.49616       -2.74574        0.11245
H          1.54166       -0.50246        2.85200
C          2.38610       -2.38306        2.28701
H          2.69861       -2.71158        3.29078
H          1.39887       -2.81456        2.08430
H          3.09869       -2.80895        1.56254
C          3.68887       -0.28891        2.74223
H          3.74102        0.80649        2.66778
H          3.81984       -0.56041        3.80223
H          4.54230       -0.70483        2.18619
C          3.57995       -1.67111       -1.22193
C          4.55635        0.35671       -0.35162
C          5.83480       -1.06095       -1.83432
C          5.72886        0.09177       -1.05594
C          4.75912       -1.94369       -1.91356
H          2.71292       -2.33447       -1.30170
H          4.83224       -2.84489       -2.52720
H          6.75554       -1.26631       -2.38591
H          6.56642        0.79120       -0.99599
H          4.48355        1.26368        0.25247
C          1.97498        2.34736       -0.44841
C          1.60025        2.18534        1.92330
C          1.63445        4.35370        0.85343
C          1.48876        3.57507        1.99869
C          1.87780        3.73253       -0.37234
H          2.14986        1.87104       -1.41666
H          1.98039        4.33137       -1.28021
H          1.55441        5.44167        0.91379
H          1.29302        4.04854        2.96385
H          1.49145        1.59919        2.83767
