100
Cat95.ts34.5.log	Energy: -1357168.4578370
C         -0.71204       -2.25162       -2.26510
H         -0.52189       -3.29584       -2.00256
H         -1.73157       -2.06121       -2.61840
C          0.35712       -1.49380       -2.82716
H          1.35114       -1.94148       -2.91728
H          0.13360       -0.80738       -3.65356
H          0.33141       -0.10491       -1.98229
Rh         0.01886       -1.00387       -0.67858
C         -2.15897        1.31836       -2.14680
C         -3.55919       -0.79894       -0.65250
C         -2.21658        1.47287        0.83069
C          1.33898        0.84627        2.02574
C          3.15527       -1.15056        0.76896
C          2.57913        1.52524       -0.55810
P          1.80856        0.08462        0.36997
P         -2.01707        0.27204       -0.58883
C          0.07550       -2.42460        0.54284
O          0.13090       -3.32426        1.26958
H         -1.75556        0.61010       -2.89305
C         -3.52885        1.75807       -2.65124
H         -3.41481        2.27533       -3.61872
H         -4.20330        0.90663       -2.81893
H         -4.02876        2.45804       -1.96646
C         -1.18446        2.49076       -2.06993
H         -0.20982        2.17014       -1.67407
H         -1.01914        2.92423       -3.06934
H         -1.56568        3.29603       -1.42370
H         -3.60890       -1.05291       -1.73009
C         -4.90128       -0.17112       -0.26424
H         -5.06804        0.78098       -0.78418
H         -4.88864        0.05971        0.81433
C         -6.06163       -1.12462       -0.54167
H         -7.01365       -0.65132       -0.24971
H         -6.12671       -1.30671       -1.63021
C         -5.87951       -2.45244        0.18245
H         -6.70309       -3.14306       -0.06209
H         -5.93339       -2.27789        1.27260
C         -4.53280       -3.07863       -0.15696
H         -4.52558       -3.36759       -1.22410
H         -4.38295       -4.00868        0.41508
C         -3.37567       -2.11992        0.10113
H         -3.29857       -1.91599        1.18360
H         -2.42199       -2.57868       -0.18909
H         -1.23676        1.98769        0.79819
C         -2.27332        0.70735        2.15581
H         -1.49898       -0.07495        2.16496
H         -3.24138        0.18235        2.22923
C         -2.12807        1.64189        3.35181
H         -2.20403        1.06977        4.29084
H         -1.11732        2.08924        3.34197
C         -3.16639        2.75729        3.31733
H         -3.01886        3.44950        4.16225
H         -4.17280        2.31917        3.44682
C         -3.11913        3.51245        1.99420
H         -2.15013        4.03815        1.91024
H         -3.89756        4.29255        1.96782
C         -3.28238        2.57235        0.80076
H         -4.28853        2.12871        0.83076
H         -3.22314        3.14961       -0.13271
H          0.35928        1.27340        1.76039
C          1.08448       -0.24120        3.06520
H          0.55439        0.18496        3.93182
H          0.46936       -1.05894        2.66673
H          2.02252       -0.67783        3.43947
C          2.17017        1.98179        2.61308
H          2.27916        2.82840        1.92070
H          1.66457        2.36583        3.51500
H          3.17527        1.65891        2.92127
H          2.55877       -1.92051        1.29251
C          4.31522       -0.79045        1.70170
H          3.94753       -0.32892        2.62947
H          4.97741       -0.05248        1.22590
C          5.13242       -2.03813        2.03394
H          5.96873       -1.77333        2.70164
H          4.49778       -2.74759        2.59531
C          5.65300       -2.71733        0.77222
H          6.21447       -3.63010        1.03005
H          6.37118       -2.04247        0.27109
C          4.51713       -3.04284       -0.19119
H          3.86266       -3.80972        0.26059
H          4.91416       -3.48183       -1.12116
C          3.67743       -1.81072       -0.50951
H          4.29093       -1.08564       -1.07475
H          2.82090       -2.07612       -1.14908
H          1.88555        2.35134       -0.30120
C          2.55567        1.38479       -2.08259
H          1.55434        1.08946       -2.42097
H          3.23179        0.56608       -2.38503
C          2.97197        2.68122       -2.77005
H          2.95693        2.54545       -3.86381
H          2.21902        3.45890       -2.54491
C          4.34274        3.16081       -2.31049
H          4.59025        4.13022       -2.77283
H          5.11090        2.44572       -2.65664
C          4.40493        3.25694       -0.79201
H          3.73182        4.06247       -0.44524
H          5.41893        3.53776       -0.46341
C          3.99190        1.94280       -0.13412
H          4.69739        1.15568       -0.44915
H          4.08397        2.02386        0.95502
