96
Cat90.ts34.5.log	Energy: -1261582.4765853
C          0.83416       -2.06830       -2.65579
H          1.03490       -3.13782       -2.55164
H          0.01110       -1.83788       -3.34118
C          1.93225       -1.16871       -2.56236
H          2.93189       -1.55720       -2.35114
H          1.94613       -0.28904       -3.21536
H          1.49785        0.00199       -1.42509
Rh         0.69997       -1.21444       -0.68975
C         -1.29972        0.77655       -2.88667
C         -2.77289       -1.21399       -1.35948
C         -1.91805        1.20551       -0.02942
C          0.90680       -1.21915        2.84189
C          3.37484       -0.56817        1.52511
C          1.26679        1.40003        1.69478
P          1.54489       -0.38538        1.29378
P         -1.31582       -0.08329       -1.21532
C          0.40415       -2.89310        0.08841
O          0.21966       -3.92565        0.57737
H         -0.68134        0.08939       -3.49062
C         -2.63130        0.93818       -3.61202
H         -2.46562        1.40817       -4.59578
H         -3.12652       -0.02617       -3.79239
H         -3.33454        1.57812       -3.05919
C         -0.54143        2.09598       -2.79614
H          0.43094        1.96667       -2.29774
H         -0.35106        2.50111       -3.80283
H         -1.11008        2.85794       -2.23935
H         -3.66437       -0.65957       -1.69540
H         -2.51609       -1.92663       -2.16229
C         -3.07505       -1.97317       -0.07711
H         -2.15688       -2.47605        0.26515
H         -3.35087       -1.26247        0.72258
C         -4.18379       -3.00475       -0.22811
H         -3.91583       -3.70763       -1.03784
H         -5.11502       -2.50807       -0.55781
C         -4.44905       -3.78832        1.04993
H         -3.51169       -4.27711        1.36899
H         -4.70757       -3.08236        1.85945
C         -5.54858       -4.82794        0.90677
H         -5.71460       -5.37734        1.84590
H         -5.29864       -5.56772        0.12923
H         -6.50547       -4.36208        0.62022
H         -1.88386        0.70468        0.95238
H         -1.12043        1.96436        0.00912
C         -3.27030        1.87557       -0.21999
H         -3.28103        2.44609       -1.16319
H         -4.06335        1.11415       -0.31748
C         -3.61690        2.81404        0.92903
H         -2.81724        3.57081        1.03371
H         -3.61210        2.24503        1.87689
C         -4.95777        3.51582        0.76703
H         -4.95728        4.08089       -0.18204
H         -5.75205        2.75582        0.65994
C         -5.29397        4.44960        1.91845
H         -6.26730        4.94213        1.77295
H         -4.53386        5.24023        2.02612
H         -5.33688        3.90437        2.87510
H          1.16383       -2.27768        2.66050
C          1.56842       -0.77822        4.14225
H          1.17997       -1.37713        4.98190
H          2.66002       -0.90637        4.12768
H          1.35150        0.27659        4.37326
C         -0.61115       -1.11672        2.92742
H         -1.08550       -1.42013        1.98435
H         -0.99590       -1.76500        3.73049
H         -0.93183       -0.08753        3.15799
H          3.70035        0.08284        2.35480
H          3.52929       -1.61046        1.85510
C          4.20710       -0.30828        0.27973
H          3.85591       -0.98333       -0.51568
H          4.02108        0.71186       -0.09776
C          5.69994       -0.49938        0.50368
H          5.88329       -1.52029        0.88625
H          6.04817        0.18379        1.30037
C          6.53099       -0.27493       -0.75215
H          6.17633       -0.95810       -1.54419
H          6.34086        0.74434       -1.13314
C          8.02276       -0.47095       -0.53610
H          8.59441       -0.30172       -1.46126
H          8.24501       -1.49345       -0.19046
H          8.41085        0.22377        0.22635
H          0.18773        1.49345        1.89735
H          1.78766        1.63881        2.63695
C          1.66258        2.38118        0.60272
H          2.76106        2.41505        0.50543
H          1.28997        2.00361       -0.36407
C          1.13461        3.78906        0.84033
H          1.51169        4.17094        1.80659
H          0.03437        3.74968        0.94859
C          1.49243        4.76769       -0.26922
H          2.59122        4.81587       -0.36947
H          1.12332        4.36954       -1.23084
C          0.93492        6.16388       -0.04546
H          1.20806        6.84817       -0.86295
H          1.31252        6.59982        0.89354
H         -0.16519        6.14761        0.02073
