64
Cat011.ts34.5.log	Energy: -1494593.0976750
C         -0.71263       -3.15079       -1.39315
H         -0.78205       -4.06639       -0.79870
H         -1.60088       -2.96572       -2.00816
C          0.57728       -2.83216       -1.95507
H          1.44634       -3.44302       -1.69441
H          0.61279       -2.49320       -2.99737
H          0.77313       -1.28552       -1.68577
Ir         0.03612       -1.52688       -0.18841
C         -1.82732        0.36085       -2.58507
C         -3.37931       -0.59896       -0.40723
C         -1.67493        1.59900        0.00185
C          1.57630        0.21031        2.48826
C          3.36235       -0.64194        0.45288
C          1.67841        1.59444       -0.03533
P          1.62278       -0.09108        0.68344
P         -1.66593       -0.04837       -0.80143
C         -0.18490       -2.40755        1.46740
O         -0.31569       -2.91502        2.50027
H         -0.90354        0.85191       -2.92361
H         -1.92804       -0.59005       -3.12832
H         -2.69553        0.99566       -2.81694
C         -3.60631       -1.86431        0.13973
H         -2.74963       -2.51380        0.33364
C         -4.47444        0.24700       -0.63392
H         -4.31634        1.25309       -1.03237
C         -4.89763       -2.29148        0.44352
H         -5.08902       -3.27646        0.87300
C         -5.76861       -0.16385       -0.33625
H         -6.63107        0.48431       -0.50216
C         -5.96181       -1.43470        0.19784
F         -7.19865       -1.83206        0.48605
C         -1.58999        2.80884       -0.69278
H         -1.52876        2.82064       -1.78208
C         -1.74254        1.62925        1.40253
H         -1.80667        0.68568        1.95292
C         -1.56337        4.02468       -0.01064
H         -1.47708        4.97458       -0.54135
C         -1.72656        2.83374        2.09546
H         -1.78363        2.87106        3.18506
C         -1.62926        4.02034        1.37453
F         -1.58237        5.17836        2.03272
H          1.62006       -0.76877        2.98479
H          2.42473        0.82229        2.82630
H          0.62621        0.69387        2.75566
C          4.43313        0.26090        0.42982
H          4.24539        1.33519        0.50406
C          3.62510       -2.01132        0.34164
H          2.77919       -2.70603        0.34832
C          5.74214       -0.19257        0.29763
H          6.58853        0.49612        0.26952
C          4.93021       -2.47966        0.21698
H          5.15277       -3.54474        0.13024
C          5.97206       -1.56041        0.19471
F          7.22199       -1.99779        0.06542
C          1.66588        2.75987        0.73628
H          1.61255        2.70499        1.82436
C          1.73273        1.71236       -1.43100
H          1.73135        0.80682       -2.04375
C          1.69962        4.01712        0.13521
H          1.66605        4.93319        0.72751
C          1.77742        2.95837       -2.04490
H          1.82230        3.06326       -3.13054
C          1.75373        4.09887       -1.24822
F          1.76585        5.29654       -1.82984
