74
Cat050.ts34.5.log	Energy: -2636951.5737233
C          0.42188        1.91797        2.94209
H          0.02247        1.73807        3.94368
H          1.46598        2.24859        2.93756
C         -0.46928        2.48082        1.96329
H         -1.52812        2.60332        2.20346
H         -0.09147        3.26781        1.30082
H         -0.18552        1.62959        0.64485
Ir        -0.09784        0.27190        1.62798
C          3.24396       -0.66922        2.36861
O          2.38430       -1.10901       -0.17978
O          3.00688        1.27953        0.67536
C         -0.58549       -2.14388       -0.96613
O         -2.66282       -1.54734        0.74734
O         -1.96618        0.08997       -1.14862
P         -1.31434       -0.83618        0.07447
P          2.07761       -0.06546        1.10099
C         -0.77336       -0.81525        3.04325
O         -1.16572       -1.48505        3.89407
H          3.19965        0.09005        3.16591
C          2.87073       -2.04554        2.89459
H          2.95487       -2.81209        2.10977
H          1.83819       -2.06030        3.27435
H          4.26433       -0.64641        1.95471
H          3.53999       -2.33743        3.71691
C          3.58274       -1.66349       -0.53385
C          3.61501       -3.04404       -0.74250
H          2.70317       -3.62245       -0.58191
C          4.73366       -0.89811       -0.73915
H          4.70354        0.17963       -0.57753
C          4.79080       -3.66379       -1.15088
H          4.82392       -4.74168       -1.31690
C          5.91347       -1.51898       -1.14153
H          6.81860       -0.93137       -1.30293
C          5.93956       -2.89719       -1.34606
Cl         7.40841       -3.66447       -1.84926
C          2.53004        2.21124       -0.19889
C          2.12918        1.85875       -1.49048
H          2.17959        0.81530       -1.80453
C          2.46947        3.54415        0.21039
H          2.79106        3.80180        1.22114
C          1.66508        2.83635       -2.36481
H          1.35639        2.57260       -3.37789
C          1.99522        4.52276       -0.65807
H          1.93242        5.56522       -0.34226
C          1.58706        4.16116       -1.94101
Cl         0.96195        5.36890       -3.01848
H         -0.50941       -3.01812       -0.29616
C         -1.22996       -2.49642       -2.29854
H         -1.36415       -1.59877       -2.91741
H         -2.21156       -2.97329       -2.17992
H          0.44972       -1.79379       -1.10319
H         -0.58096       -3.19577       -2.84741
C         -3.49405       -2.41726        0.09620
C         -3.43247       -3.77214        0.42130
H         -2.72022       -4.10107        1.18044
C         -4.41424       -1.96117       -0.84943
H         -4.45540       -0.89969       -1.09589
C         -4.27369       -4.68023       -0.21426
H         -4.23398       -5.74294        0.02971
C         -5.25625       -2.86670       -1.48725
H         -5.97588       -2.52506       -2.23278
C         -5.17866       -4.22324       -1.17195
Cl        -6.22398       -5.35025       -1.97018
C         -2.36382        1.37966       -0.92726
C         -3.33555        1.68788        0.02646
H         -3.78542        0.88965        0.61953
C         -1.75753        2.39197       -1.66664
H         -0.98917        2.12607       -2.39220
C         -3.69809        3.01546        0.23625
H         -4.45310        3.27311        0.98068
C         -2.11078        3.72136       -1.45584
H         -1.62182        4.51923       -2.01727
C         -3.07980        4.02569       -0.50061
Cl        -3.51307        5.67947       -0.21708
