54
Cat031.ts34.5.log	Energy: -912606.1768424
C          1.44951       -2.49077        0.42844
H          1.41968       -3.25356       -0.35496
H          2.46679       -2.25308        0.75868
C          0.41562       -2.55421        1.43739
H         -0.39336       -3.28150        1.32156
H          0.71757       -2.44491        2.48660
H         -0.05266       -1.07707        1.63237
Ir         0.12532       -0.86355       -0.03968
C          2.05758        1.62817        1.83715
C          3.45517        0.30111       -0.26133
C          1.46007        2.28790       -0.89246
C         -2.18023        1.32566       -1.58609
C         -3.37975       -0.59529        0.22528
C         -1.89503        1.63783        1.32684
P         -1.83322        0.38119       -0.02908
P          1.73875        0.81576        0.19967
C         -0.17799       -1.38887       -1.82289
O         -0.37225       -1.66668       -2.93271
H          1.17019        2.24734        2.05126
C          2.27983        0.63073        2.96195
H          3.17476        0.01265        2.78966
H          1.41900       -0.04938        3.04961
H          2.91532        2.31657        1.74913
H          2.41369        1.14095        3.92818
H          3.74856       -0.47001        0.46915
C          3.55936       -0.24924       -1.67348
H          3.32562        0.51842       -2.42796
H          2.85073       -1.07822       -1.81807
H          4.13957        1.15245       -0.10727
H          4.57526       -0.61865       -1.88149
H          0.51343        2.73130       -0.54102
C          2.54878        3.34567       -0.97667
H          3.48489        2.93681       -1.38590
H          2.77806        3.78484        0.00607
H          1.23385        1.86814       -1.88566
H          2.23970        4.17066       -1.63773
H         -1.75484        0.70605       -2.39068
C         -3.61421        1.70269       -1.93031
H         -4.09453        2.31534       -1.15457
H         -4.24018        0.81173       -2.08451
H         -1.53526        2.21849       -1.53374
H         -3.63901        2.27996       -2.86779
H         -3.44757       -1.25722       -0.65376
C         -3.36578       -1.41479        1.50434
H         -3.33752       -0.77450        2.40028
H         -2.48196       -2.06875        1.53259
H         -4.25463        0.07441        0.19486
H         -4.26511       -2.04487        1.57827
H         -1.01837        2.28342        1.15492
C         -3.15143        2.47039        1.52163
H         -4.04593        1.84346        1.65715
H         -3.33734        3.13973        0.66929
H         -1.65191        1.06548        2.23701
H         -3.05980        3.10388        2.41780
