66
Cat053.ts34.5.log	Energy: -1011206.3506191
C          1.15723       -2.73394        0.68204
H          1.29089       -3.48679       -0.10023
H          2.06511       -2.55843        1.26979
C         -0.10526       -2.74617        1.38669
H         -0.89420       -3.42519        1.04995
H         -0.08109       -2.65959        2.48024
H         -0.53256       -1.24702        1.48591
Ir         0.08995       -1.02758       -0.07413
C          1.48300        1.45652        2.24676
C          3.38856       -0.05726        0.76589
C          1.83661        1.98699       -0.55155
C         -1.63522        1.17313       -2.18171
C         -3.36229       -0.51860       -0.62288
C         -1.99910        1.68886        0.69668
P         -1.72884        0.33400       -0.53890
P          1.65493        0.56899        0.62588
C          0.25723       -1.51881       -1.88510
O          0.36706       -1.78992       -3.00778
H          0.62936        2.14500        2.13190
C          1.24527        0.51683        3.41709
H          2.09481       -0.16693        3.57053
H          0.35220       -0.10244        3.24088
H          2.37609        2.08024        2.42101
H          1.09814        1.07465        4.35474
H          4.04480        0.75467        1.12490
H          3.37681       -0.82158        1.56124
C          3.92172       -0.66484       -0.52361
H          3.98549        0.11669       -1.30078
H          3.18686       -1.39701       -0.89647
C          5.28161       -1.32281       -0.35130
H          6.03843       -0.60347        0.00170
H          5.23532       -2.14069        0.38578
H          5.64425       -1.75022       -1.29857
H          1.92419        1.52574       -1.54954
H          0.85678        2.49566       -0.54977
C          2.95277        2.99789       -0.32552
H          3.92848        2.48452       -0.34994
H          2.86645        3.43684        0.68251
C          2.94454        4.11090       -1.36344
H          3.06231        3.70590       -2.38125
H          1.99550        4.67060       -1.34089
H          3.76009        4.83047       -1.19380
H         -1.56899        0.34075       -2.90204
C         -2.71586        2.15979       -2.59271
H         -2.70729        3.06316       -1.96505
H         -3.72415        1.72196       -2.53952
H         -0.64162        1.64792       -2.20347
H         -2.55850        2.48728       -3.63226
H         -4.16159        0.21589       -0.82085
H         -3.29888       -1.17512       -1.50736
C         -3.68370       -1.34611        0.61340
H         -3.69339       -0.69662        1.50660
H         -2.86057       -2.06018        0.77388
C         -5.00901       -2.08318        0.50401
H         -5.85100       -1.38447        0.37183
H         -5.01110       -2.76804       -0.35903
H         -5.21185       -2.68229        1.40487
H         -1.67445        1.25998        1.65864
H         -1.24838        2.46172        0.45304
C         -3.37995        2.31582        0.85160
H         -4.10309        1.53939        1.15022
H         -3.74015        2.70519       -0.11269
C         -3.38639        3.43218        1.88573
H         -3.05719        3.06401        2.87070
H         -2.70551        4.24890        1.59638
H         -4.39127        3.86383        2.00928
