68
Cat019.ts34.5.log	Energy: -1683337.0219076
C          1.19211       -3.91008       -0.93553
H          1.18602       -4.45691       -1.88201
H          2.13317       -3.99426       -0.38159
C         -0.03084       -3.88157       -0.17782
H         -0.94344       -4.30454       -0.60553
H          0.03251       -4.00975        0.90933
H         -0.18668       -2.36342        0.28946
Ir         0.37539       -1.91858       -1.22440
C          3.85672       -1.24505       -0.98600
O          2.16325        0.76043       -0.33509
O          2.61547       -1.23381        1.27033
C         -1.85891        0.44962       -2.65802
O         -2.70151       -1.15651       -0.62135
O         -1.18733        0.80922       -0.05591
P         -1.30773       -0.42694       -1.16695
P          2.20043       -0.91400       -0.32562
C          0.40225       -1.99895       -3.12647
O          0.41424       -2.01505       -4.27988
H          4.01847       -2.33139       -0.96511
H          3.88918       -0.90548       -2.03058
H          4.63487       -0.74153       -0.39505
C          3.20899        1.56163        0.04708
C          3.93101        2.23520       -0.93909
H          3.67122        2.07677       -1.98763
C          3.51305        1.75125        1.39643
H          2.93429        1.23013        2.15946
C          4.96371        3.09786       -0.58200
H          5.54200        3.63807       -1.33360
C          4.54820        2.60962        1.75671
H          4.80668        2.77728        2.80372
C          5.26147        3.27187        0.76439
F          6.24984        4.09456        1.11119
C          1.67545       -1.33763        2.25431
C          1.82316       -2.36080        3.19289
H          2.66883       -3.04417        3.09705
C          0.59981       -0.44980        2.34793
H          0.46558        0.33587        1.60320
C          0.90373       -2.49708        4.22919
H          1.00024       -3.28763        4.97549
C         -0.32274       -0.58705        3.38268
H         -1.16516        0.10080        3.47614
C         -0.16205       -1.60745        4.31076
F         -1.04676       -1.73763        5.30031
H         -2.13341       -0.31161       -3.40154
H         -2.71078        1.11447       -2.45840
H         -1.02269        1.04383       -3.05228
C         -3.76176       -0.48763       -0.07682
C         -4.81501       -0.05072       -0.88098
H         -4.78585       -0.24471       -1.95443
C         -3.79870       -0.27860        1.30347
H         -2.96641       -0.63759        1.91035
C         -5.89733        0.61602       -0.30989
H         -6.73416        0.96757       -0.91589
C         -4.87850        0.38294        1.87976
H         -4.93099        0.55890        2.95567
C         -5.91325        0.82884        1.06339
F         -6.94642        1.46577        1.61160
C         -1.33043        2.15057       -0.30932
C         -2.54270        2.79038       -0.04803
H         -3.38692        2.21406        0.33139
C         -0.23589        2.87468       -0.78445
H          0.70225        2.34570       -0.95710
C         -2.66158        4.16066       -0.26864
H         -3.59713        4.68675       -0.07078
C         -0.35364        4.24334       -1.00787
H          0.48856        4.83321       -1.37399
C         -1.56704        4.87009       -0.74827
F         -1.68275        6.18031       -0.96109
