88
Cat008.ts34.5.log	Energy: -1254703.3101246
C         -1.04596       -2.89249       -0.74826
H         -0.98614       -3.68884       -0.00068
H         -2.03072       -2.82306       -1.22310
C          0.11579       -2.70092       -1.58627
H          1.01875       -3.28534       -1.38538
H         -0.04935       -2.56699       -2.66311
H          0.32913       -1.17384       -1.62776
Ir        -0.12119       -1.10474        0.00555
C         -1.66416        1.39086       -2.10980
C         -3.47896       -0.46512       -0.93975
C         -2.33751        1.69417        0.67784
C          1.71834        1.08181        2.07740
C          3.28126       -0.88167        0.67130
C          2.15128        1.58207       -0.71129
P          1.76525        0.19356        0.47199
P         -1.85477        0.38718       -0.57580
C         -0.16914       -1.64569        1.80476
O         -0.20943       -1.94558        2.92549
H         -0.70696        1.92614       -2.07374
H         -1.62607        0.69599       -2.96214
H         -2.47451        2.11782       -2.27117
H         -3.18254       -1.18521       -1.72710
C         -4.60950        0.39118       -1.51174
H         -4.27299        0.95432       -2.39523
H         -4.92365        1.14002       -0.76227
C         -5.81323       -0.47122       -1.89114
H         -6.62882        0.16677       -2.26967
H         -5.52560       -1.13412       -2.72738
C         -6.29996       -1.32293       -0.72447
H         -7.13422       -1.96877       -1.04357
H         -6.70403       -0.66065        0.06295
C         -5.16685       -2.15661       -0.13707
H         -4.83425       -2.90360       -0.88073
H         -5.52032       -2.72668        0.73739
C         -3.98393       -1.27776        0.25312
H         -4.31152       -0.58310        1.04638
H         -3.16142       -1.87472        0.67590
H         -3.39332        1.94570        0.46344
C         -1.51996        2.98050        0.53444
H         -1.63398        3.40607       -0.47351
H         -0.44818        2.73909        0.64890
C         -1.91619        4.02757        1.57184
H         -1.28392        4.92383        1.45951
H         -2.95303        4.35361        1.37135
C         -1.83150        3.48511        2.99281
H         -2.16289        4.24811        3.71585
H         -0.77609        3.26556        3.23730
C         -2.65269        2.21047        3.13854
H         -3.72415        2.45170        3.01231
H         -2.54595        1.79632        4.15411
C         -2.24080        1.16390        2.10938
H         -1.20120        0.84803        2.29076
H         -2.84091        0.25132        2.23061
H          1.55544        0.34526        2.87736
H          2.63446        1.64968        2.28999
H          0.86168        1.76792        2.07350
H          2.84678       -1.70613        1.26737
C          4.47998       -0.33770        1.45181
H          4.16394        0.05862        2.42848
H          4.94326        0.50049        0.90615
C          5.52303       -1.43439        1.66355
H          6.39241       -1.02680        2.20499
H          5.09137       -2.21694        2.31323
C          5.96283       -2.06419        0.34670
H          6.68557       -2.87538        0.53190
H          6.49541       -1.30637       -0.25692
C          4.76810       -2.58168       -0.44615
H          4.29871       -3.41906        0.10077
H          5.09594       -2.98800       -1.41695
C          3.73070       -1.48487       -0.65927
H          4.17651       -0.69261       -1.28615
H          2.85707       -1.87135       -1.20657
H          1.29856        2.25951       -0.50675
C          2.05562        1.18958       -2.18628
H          1.13307        0.61505       -2.35831
H          2.89014        0.51715       -2.44515
C          2.11087        2.42145       -3.08392
H          2.05925        2.12026       -4.14287
H          1.21830        3.04680       -2.89693
C          3.36504        3.24877       -2.82507
H          3.36415        4.15844       -3.44726
H          4.25152        2.66421       -3.13167
C          3.49538        3.61201       -1.35050
H          2.67473        4.29645       -1.06829
H          4.43350        4.16197       -1.17043
C          3.43632        2.37251       -0.46032
H          4.30538        1.73079       -0.68449
H          3.52624        2.66496        0.59707
