68
Cat017.ts34.5.log	Energy: -1434358.0965585
C         -1.60569       -1.09744        3.26465
H         -1.46949       -0.52810        4.18823
H         -2.65422       -1.31414        3.03667
C         -0.62530       -2.11250        2.96684
H          0.26536       -2.20298        3.59407
H         -0.97627       -3.08002        2.58972
H         -0.37029       -1.92265        1.38801
Ir        -0.39566       -0.27825        1.67543
C         -3.81519        0.11794        0.72210
O         -1.93014        1.60721       -0.53083
O         -2.17917       -0.77043       -1.22322
C          1.06225        0.64960       -1.40529
O          2.68487        0.71680        0.76504
O          1.97365       -1.57774       -0.14135
P          1.33408       -0.08461        0.23145
P         -2.06770        0.13122        0.21141
C          0.17770        1.22758        2.69951
O          0.53058        2.16092        3.27773
H         -4.07242       -0.90457        1.03456
H         -3.93121        0.78747        1.58637
H         -4.48046        0.43296       -0.09435
C         -2.90730        2.22904       -1.26483
C         -3.46334        3.40110       -0.75046
H         -3.12000        3.76187        0.22110
C         -3.31051        1.73827       -2.50837
H         -2.86116        0.82071       -2.88786
C         -4.43096        4.08417       -1.48293
H         -4.86349        5.00296       -1.07958
C         -4.28345        2.42883       -3.22918
H         -4.60058        2.04611       -4.20241
C         -4.84680        3.59967       -2.72303
H         -5.60666        4.13598       -3.29561
C         -2.26782       -2.13450       -1.19713
C         -3.52282       -2.73830       -1.30548
H         -4.40777       -2.10524       -1.39697
C         -1.11599       -2.91974       -1.10067
H         -0.13989       -2.44262       -1.01004
C         -3.62472       -4.12805       -1.31478
H         -4.60785       -4.59612       -1.40622
C         -1.22971       -4.30871       -1.10764
H         -0.32595       -4.91805       -1.03085
C         -2.48003       -4.91779       -1.21171
H         -2.56202       -6.00692       -1.21797
H          0.23132        0.09972       -1.87014
H          0.73891        1.69066       -1.26572
H          1.95528        0.61894       -2.04372
C          3.23312        1.84049        0.19795
C          2.84025        3.09390        0.66888
H          2.10060        3.15335        1.46947
C          4.19454        1.72653       -0.80691
H          4.49647        0.73580       -1.15086
C          3.41038        4.24018        0.11935
H          3.10355        5.22175        0.48827
C          4.75746        2.88116       -1.34740
H          5.51045        2.79221       -2.13416
C          4.36687        4.13930       -0.89068
H          4.81040        5.04088       -1.31887
C          3.11837       -1.75591       -0.87150
C          4.35195       -1.76984       -0.21864
H          4.37827       -1.60566        0.85938
C          3.04232       -1.95895       -2.25001
H          2.06511       -1.96189       -2.73696
C          5.51499       -1.97586       -0.95676
H          6.48119       -1.98363       -0.44682
C          4.21273       -2.16187       -2.97928
H          4.15387       -2.32053       -4.05866
C          5.45088       -2.16675       -2.33753
H          6.36566       -2.32584       -2.91253
