112
Cat081.ts34.5.log	Energy: -1640020.6925717
C         -0.46695        2.12175       -2.68987
H         -0.11862        1.87654       -3.69702
H         -1.51577        2.43317       -2.66092
C          0.46801        2.82238       -1.83692
H          1.48825        2.98341       -2.19745
H          0.09764        3.68714       -1.26977
H          0.39164        2.12018       -0.49598
Ir         0.22747        0.62730       -1.30827
C         -2.82345        1.62598        0.51732
C         -3.05375       -0.20057       -1.71268
C         -2.10884       -1.13617        0.91424
C          1.47953       -1.94788        0.82416
C          3.36870       -0.80251       -1.09030
C          2.59732        0.51989        1.46821
P          1.90602       -0.36036       -0.01923
P         -1.88400        0.27190       -0.32285
C          0.48759       -0.66463       -2.64361
O          0.59264       -1.48514       -3.45688
H         -3.81442        1.24742        0.81679
H         -2.28498        1.82731        1.45666
C         -2.95101        2.91488       -0.27633
H         -1.94790        3.29286       -0.53126
H         -3.45549        2.72709       -1.24086
C         -3.71919        3.99233        0.47701
H         -3.22166        4.18342        1.44515
H         -4.72554        3.61270        0.73210
C         -3.84876        5.29819       -0.29418
H         -2.83967        5.66924       -0.54759
H         -4.34263        5.09910       -1.26196
C         -4.61516        6.37246        0.46019
H         -4.69202        7.30308       -0.12219
H         -4.12340        6.61726        1.41546
H         -5.63962        6.04136        0.69516
H         -3.19437        0.73652       -2.27303
H         -2.46168       -0.85227       -2.36731
C         -4.36577       -0.81176       -1.33976
C         -5.42921        0.00276       -0.92802
H         -5.29932        1.08771       -0.93894
C         -4.55269       -2.21202       -1.37623
C         -3.48919       -3.13439       -1.90430
H         -2.51577       -2.99442       -1.41036
H         -3.31576       -2.96669       -2.97993
H         -3.78058       -4.18563       -1.77411
C         -6.64331       -0.53632       -0.51408
H         -7.45249        0.12308       -0.19203
C         -5.77852       -2.73868       -0.95243
H         -5.92165       -3.82254       -0.97506
C         -6.81590       -1.91832       -0.51453
H         -7.76050       -2.35910       -0.18758
H         -2.58666       -1.95663        0.36401
H         -1.09721       -1.46942        1.16643
C         -2.89933       -0.83783        2.15271
C         -4.25601       -1.17417        2.21403
H         -4.71741       -1.67549        1.36045
C         -2.30069       -0.19185        3.25424
C         -0.84180        0.16603        3.24135
H         -0.53313        0.61823        2.28505
H         -0.21162       -0.72765        3.38978
H         -0.59754        0.87291        4.04649
C         -5.02519       -0.87239        3.33466
H         -6.08368       -1.14234        3.35417
C         -3.08627        0.10469        4.37204
H         -2.62313        0.60996        5.22438
C         -4.43895       -0.22610        4.41953
H         -5.03099        0.02080        5.30405
H          2.37369       -2.33450        1.33919
H          0.77542       -1.66139        1.62225
C          0.85659       -2.99996       -0.07660
H          0.02946       -2.54067       -0.64397
H          1.58638       -3.32472       -0.83933
C          0.34624       -4.21484        0.68531
H         -0.39788       -3.88672        1.43441
H          1.17306       -4.66427        1.26536
C         -0.27734       -5.27395       -0.21259
H         -1.08856       -4.81251       -0.80222
H          0.47163       -5.60859       -0.95174
C         -0.81886       -6.47092        0.55144
H         -1.26120       -7.21853       -0.12429
H         -1.59878       -6.16672        1.26815
H         -0.02341       -6.97220        1.12621
H          2.95678       -1.56678       -1.77083
H          3.50993        0.08946       -1.71226
C          4.66046       -1.26405       -0.48227
C          4.73735       -2.50431        0.16700
H          3.85469       -3.14648        0.19333
C          5.83437       -0.48576       -0.59989
C          5.85959        0.79551       -1.38069
H          5.12354        1.52288       -1.01070
H          5.63686        0.61470       -2.44516
H          6.84957        1.26686       -1.32240
C          5.91905       -2.95590        0.74944
H          5.94503       -3.92647        1.25033
C          7.01271       -0.95372       -0.00748
H          7.91753       -0.34585       -0.09315
C          7.06340       -2.16699        0.67380
H          7.99914       -2.50212        1.12739
H          1.70676        0.92493        1.97627
H          3.00800       -0.26005        2.12184
C          3.61203        1.60738        1.25798
C          3.29436        2.72132        0.47234
H          2.31223        2.76361        0.00176
C          4.87765        1.54291        1.87924
C          5.27030        0.39516        2.76438
H          5.20766       -0.56934        2.23779
H          4.62291        0.33146        3.65439
H          6.30493        0.51076        3.11395
C          4.20256        3.75835        0.27686
H          3.92782        4.61454       -0.34376
C          5.77961        2.59253        1.66847
H          6.76261        2.54131        2.14463
C          5.45719        3.69163        0.87682
H          6.18451        4.49412        0.73274
