82
Cat058.ts34.5.log	Energy: -1642495.0137696
C         -0.44838       -2.95701       -0.96954
H         -0.44203       -3.78105       -0.24995
H         -1.37055       -2.90636       -1.55990
C          0.80061       -2.66540       -1.63162
H          1.71272       -3.17900       -1.31248
H          0.77725       -2.48931       -2.71425
H          0.89851       -1.11436       -1.60012
Ir         0.25556       -1.15001       -0.03706
C         -1.07459        1.69918       -1.81446
C         -2.94117       -0.40535       -1.58068
C         -2.23386        1.17504        0.77677
C          1.48019        1.65528        1.77667
C          3.39745       -0.48175        1.43555
C          2.71090        1.17021       -0.87037
P          1.93637        0.30875        0.58937
P         -1.47109        0.29142       -0.67833
C          0.09537       -1.76445        1.73312
O          0.02353       -2.11349        2.83781
H         -0.32738        2.31189       -1.28064
C         -0.53309        1.25460       -3.16314
H         -1.29643        0.71959       -3.74847
H          0.32483        0.57440       -3.04332
H         -1.97066        2.32860       -1.94194
H         -0.20655        2.11762       -3.76331
H         -3.47550        0.42985       -2.06191
H         -2.51212       -1.01577       -2.39523
C         -3.92328       -1.22053       -0.78211
C         -3.53888       -2.03466        0.29056
H         -2.48249       -2.09632        0.56331
C         -5.28436       -1.16280       -1.11067
H         -5.60973       -0.52414       -1.93616
C         -4.48005       -2.75718        1.02129
H         -4.18370       -3.38606        1.86285
C         -6.23697       -1.88335       -0.39646
H         -7.29805       -1.83756       -0.64841
C         -5.82029       -2.67302        0.66869
F         -6.72623       -3.36007        1.36400
H         -2.50026        0.37612        1.48387
H         -1.39247        1.71971        1.23148
C         -3.39689        2.08238        0.51813
C         -3.20730        3.40986        0.10855
H         -2.19234        3.80388        0.01220
C         -4.71261        1.62696        0.67816
H         -4.88933        0.60667        1.02358
C         -4.28507        4.24871       -0.16287
H         -4.14157        5.28368       -0.47846
C         -5.80240        2.45037        0.40967
H         -6.82747        2.09645        0.53373
C         -5.57451        3.75258       -0.01654
F         -6.61227        4.54710       -0.27764
H          0.71669        1.18979        2.42098
C          2.55861        2.31371        2.62520
H          3.34234        2.78789        2.01950
H          3.04127        1.58938        3.29716
H          0.94099        2.40429        1.17174
H          2.11243        3.09466        3.26016
H          4.20773        0.25745        1.53099
H          3.04291       -0.71599        2.45172
C          3.85694       -1.72835        0.74443
C          3.27496       -2.96598        1.05537
H          2.52228       -3.02209        1.84336
C          4.82688       -1.69220       -0.26289
H          5.31435       -0.74750       -0.51471
C          3.64199       -4.12616        0.38042
H          3.19658       -5.09250        0.62331
C          5.20278       -2.84271       -0.95509
H          5.96126       -2.81819       -1.73931
C          4.59866       -4.04792       -0.62554
F          4.95059       -5.15468       -1.27904
H          3.29246        0.38627       -1.38085
H          1.86736        1.40665       -1.53310
C          3.52103        2.39625       -0.59261
C          2.90869        3.65738       -0.60100
H          1.85210        3.73827       -0.87047
C          4.88439        2.33309       -0.27616
H          5.39923        1.37034       -0.28764
C          3.61331        4.81145       -0.27309
H          3.13879        5.79430       -0.27681
C          5.60737        3.47630        0.05440
H          6.66922        3.43019        0.30235
C          4.95809        4.70451        0.06107
F          5.64063        5.80212        0.37842
