84
Cat025.ts34.5.log	Energy: -1159110.9660022
C          0.13740       -2.83055       -2.24979
H          0.38257       -3.81790       -1.84849
H         -0.73023       -2.83981       -2.91816
C          1.24787       -1.97653       -2.60439
H          2.26733       -2.30332       -2.37857
H          1.19340       -1.43563       -3.55696
H          0.88078       -0.56335       -2.02124
Ir         0.21721       -1.36238       -0.67962
C         -2.52495       -0.58089       -2.87390
C         -3.24929       -1.16449       -0.19311
C         -2.08667        1.39643       -0.85359
C          0.32044        0.57609        2.28362
C          2.86270       -0.28375        1.36628
C          1.50965        1.85165       -0.03378
P          1.20353        0.19691        0.72003
P         -1.86682       -0.41634       -1.16467
C          0.20634       -2.58554        0.74815
O          0.17238       -3.28066        1.67843
H         -1.83753       -0.08386       -3.57436
H         -2.56729       -1.64725       -3.13754
H         -3.53263       -0.15286       -2.98605
H         -3.24491       -2.23393       -0.46450
H         -4.21009       -0.74414       -0.53422
C         -3.06085       -1.01376        1.30779
H         -2.03524       -1.33332        1.55252
H         -3.12697        0.05387        1.59205
C         -4.04313       -1.80828        2.16988
H         -3.99736       -2.86032        1.83111
C         -3.60569       -1.77175        3.62951
H         -2.58818       -2.17573        3.74770
H         -4.28094       -2.36104        4.26930
H         -3.60364       -0.73711        4.01275
C         -5.47942       -1.32253        2.01156
H         -6.17143       -1.90908        2.63580
H         -5.82916       -1.39838        0.97073
H         -5.56952       -0.26631        2.31869
H         -1.42434        1.89685       -1.58182
H         -1.63229        1.57500        0.13274
C         -3.48699        1.98609       -0.90581
H         -3.97122        1.72264       -1.86135
H         -4.11164        1.53414       -0.11456
C         -3.53354        3.50995       -0.74684
H         -2.93050        3.94613       -1.56592
C         -4.96393        4.01461       -0.89770
H         -5.39996        3.70828       -1.86141
H         -5.01247        5.11303       -0.83986
H         -5.60749        3.61072       -0.09824
C         -2.93046        3.97493        0.57488
H         -3.01478        5.06703        0.68554
H         -1.86333        3.71919        0.66015
H         -3.45519        3.51302        1.42862
H          0.16190       -0.37055        2.82054
H          0.87904        1.26742        2.93205
H         -0.66756        1.00123        2.05765
H          2.69382       -1.21149        1.93938
H          3.21195        0.48210        2.07852
C          3.86959       -0.53281        0.25478
H          3.39389       -1.19918       -0.48520
H          4.08513        0.41293       -0.27738
C          5.19400       -1.14950        0.70856
H          4.95256       -2.09104        1.23687
C          6.05347       -1.49871       -0.50089
H          5.52364       -2.17782       -1.18686
H          6.99345       -1.98733       -0.20076
H          6.31744       -0.59079       -1.06914
C          5.95434       -0.24859        1.67549
H          6.90919       -0.70551        1.97878
H          5.38030       -0.04673        2.59238
H          6.18578        0.72210        1.20410
H          0.51725        2.23968       -0.31431
H          2.02023        1.63546       -0.98532
C          2.27406        2.87347        0.79329
H          1.80602        2.97284        1.78742
H          3.30324        2.51586        0.97662
C          2.34919        4.26664        0.15977
H          1.30953        4.60746       -0.00899
C          3.01441        5.24894        1.11679
H          2.48645        5.29261        2.08228
H          3.03576        6.26699        0.69817
H          4.05677        4.95167        1.32051
C          3.06256        4.25219       -1.18760
H          3.12290        5.26510       -1.61464
H          2.54984        3.61482       -1.92323
H          4.09386        3.87545       -1.07883
