76
Cat029.ts34.5.log	Energy: -1593196.0104866
C         -0.24652       -1.08681       -3.31188
H          0.10467       -1.99429       -3.81073
H         -1.30916       -0.88084       -3.49112
C          0.65900        0.03488       -3.27006
H          1.67882       -0.08262       -3.64637
H          0.25705        1.03544       -3.47344
H          0.55729        0.56947       -1.78338
Ir         0.48505       -1.03307       -1.28673
C         -2.54029        0.82549       -1.18791
C         -2.77225       -2.01648       -0.72891
C         -1.86160       -0.26288        1.43263
C          1.96038       -1.36489        1.93735
C          3.80554       -0.95227       -0.23097
C          2.20213        1.25233        0.83990
P          2.06802       -0.52791        0.30924
P         -1.63063       -0.56798       -0.41303
C          0.94501       -2.86013       -1.16660
O          1.24068       -3.97405       -1.03936
H         -2.01784        1.75927       -0.93955
H         -2.49393        0.69074       -2.27905
H         -3.58763        0.91338       -0.86825
H         -2.74679       -2.14435       -1.82234
H         -2.24356       -2.88393       -0.30616
C         -4.17048       -1.91959       -0.21145
C         -4.52047       -2.48001        1.02569
H         -3.77536       -3.05052        1.58670
C         -5.16666       -1.23585       -0.92425
H         -4.93357       -0.81826       -1.90650
C         -5.80133       -2.33847        1.55479
H         -6.07527       -2.77407        2.51725
C         -6.45148       -1.08205       -0.41138
H         -7.22855       -0.55040       -0.96354
C         -6.75156       -1.62964        0.83075
F         -7.97855       -1.48504        1.32813
H         -2.37757       -1.14667        1.83619
H         -0.84990       -0.26180        1.85799
C         -2.58324        0.99008        1.82215
C         -1.86890        2.13328        2.20140
H         -0.77873        2.08748        2.26646
C         -3.98289        1.07097        1.79082
H         -4.56806        0.19279        1.51137
C         -2.51416        3.32668        2.51914
H         -1.95808        4.21760        2.81630
C         -4.64494        2.25243        2.10885
H         -5.73433        2.31728        2.08717
C         -3.90060        3.37192        2.46288
F         -4.53020        4.50716        2.76270
H          2.00771       -2.45146        1.77436
H          2.76348       -1.06213        2.62518
H          0.98407       -1.13743        2.38725
H          3.71753       -1.98266       -0.60774
H          3.99434       -0.32207       -1.11320
C          4.88980       -0.84256        0.79540
C          5.60813        0.34465        0.99271
H          5.41495        1.20878        0.35315
C          5.20018       -1.93634        1.61697
H          4.67072       -2.88151        1.47162
C          6.58605        0.45043        1.97901
H          7.14940        1.37302        2.12953
C          6.17348       -1.85082        2.60751
H          6.41881       -2.70275        3.24423
C          6.85340       -0.65124        2.78082
F          7.78616       -0.56000        3.72682
H          1.40608        1.39125        1.58712
H          3.16253        1.38108        1.36466
C          2.03373        2.22884       -0.28219
C          3.07805        2.52357       -1.16660
H          4.06472        2.08356       -1.00949
C          0.78669        2.81984       -0.52286
H         -0.04561        2.60590        0.15008
C          2.89107        3.36927       -2.25723
H          3.70341        3.59950       -2.94865
C          0.57960        3.67178       -1.60393
H         -0.39118        4.13538       -1.78861
C          1.63814        3.93149       -2.46513
F          1.44995        4.73961       -3.50691
