108
Cat061.ts34.5.log	Energy: -1356303.7862784
C          1.48661       -3.15392        0.15978
H          1.65153       -3.77713       -0.72407
H          2.37196       -3.07155        0.79998
C          0.20358       -3.28308        0.81842
H         -0.57545       -3.89845        0.35800
H          0.19992       -3.37913        1.91192
H         -0.18290       -1.82658        1.15276
Ir         0.42097       -1.36314       -0.35957
C          1.20216        1.35394        1.90287
C          3.37074       -0.47464        1.46678
C          2.59432        1.36448       -0.61033
C         -1.19366        1.53549       -1.51491
C         -2.78432       -0.86081       -1.72771
C         -2.37144        0.33495        0.89838
P         -1.49015       -0.08060       -0.67256
P          1.86621        0.19205        0.62124
C          0.66280       -1.49367       -2.22197
O          0.80278       -1.51104       -3.37390
H          1.99911        2.03209        2.25192
H          0.46342        1.98279        1.37412
C          0.53512        0.65092        3.07552
H         -0.09455       -0.16468        2.68049
H          1.29996        0.15943        3.70210
C         -0.31598        1.57326        3.93764
H         -1.02394        2.12112        3.28807
H          0.31879        2.35002        4.40142
C         -1.10347        0.84147        5.01529
H         -1.71321        0.05444        4.53651
H         -0.40166        0.30995        5.68201
C         -2.00281        1.75352        5.83366
H         -2.55175        1.19642        6.60797
H         -2.74875        2.25372        5.19458
H         -1.42177        2.54143        6.33949
H          3.84808        0.31503        2.07289
H          3.00496       -1.23732        2.17538
C          4.36944       -1.09802        0.49981
H          3.82329       -1.70021       -0.24679
H          4.87769       -0.30149       -0.07092
C          5.41573       -1.96364        1.18710
H          4.90737       -2.77308        1.74279
H          5.94789       -1.36618        1.95020
C          6.42572       -2.57275        0.22489
H          5.88488       -3.16150       -0.53685
H          6.93111       -1.76211       -0.32975
C          7.46250       -3.44834        0.90965
H          8.17670       -3.87397        0.18850
H          6.98675       -4.28828        1.44121
H          8.04134       -2.87627        1.65287
H          3.06731        0.71982       -1.36959
H          1.73731        1.82629       -1.12721
C          3.56529        2.42894       -0.12088
H          3.06116        3.10265        0.59315
H          4.39135        1.95915        0.44123
C          4.14886        3.25988       -1.25646
H          3.32511        3.72719       -1.82661
H          4.66045        2.58982       -1.97115
C          5.11755        4.33797       -0.79099
H          4.60182        5.00308       -0.07547
H          5.93631        3.86522       -0.21973
C          5.69741        5.16213       -1.92913
H          6.39312        5.93179       -1.56187
H          4.90330        5.67453       -2.49588
H          6.24921        4.52712       -2.64082
H         -0.44971        2.05325       -0.88628
H         -0.65077        1.25796       -2.43546
C         -2.34746        2.47253       -1.84101
H         -3.13523        1.93246       -2.39327
H         -2.81754        2.82908       -0.90936
C         -1.90294        3.67786       -2.65999
H         -1.43840        3.32736       -3.59949
H         -1.10374        4.21366       -2.11550
C         -3.03160        4.64683       -2.98320
H         -3.82881        4.10502       -3.52250
H         -3.49236        4.99284       -2.04073
C         -2.58235        5.84528       -3.80335
H         -3.41891        6.52642       -4.02081
H         -2.15075        5.53022       -4.76697
H         -1.81022        6.42551       -3.27278
H         -3.67156       -0.20850       -1.79071
H         -2.34575       -0.91334       -2.73928
C         -3.16360       -2.25573       -1.25447
H         -2.23849       -2.85179       -1.17281
H         -3.57951       -2.20553       -0.23153
C         -4.15901       -2.95580       -2.16771
H         -3.73950       -3.00611       -3.18892
H         -5.07925       -2.34851       -2.25182
C         -4.52124       -4.35898       -1.70129
H         -3.59751       -4.95808       -1.61585
H         -4.93547       -4.30410       -0.67863
C         -5.50820       -5.06586       -2.61604
H         -5.74928       -6.07628       -2.25234
H         -5.10403       -5.16741       -3.63612
H         -6.45414       -4.50556       -2.69292
H         -2.23298       -0.54620        1.54469
H         -1.76829        1.13193        1.36407
C         -3.84239        0.72588        0.87688
H         -4.01900        1.56023        0.17987
H         -4.44682       -0.11566        0.49762
C         -4.33900        1.11594        2.26346
H         -3.73737        1.96501        2.63714
H         -4.14345        0.28570        2.96672
C         -5.81434        1.48467        2.31495
H         -6.00615        2.31105        1.60761
H         -6.41377        0.63304        1.94731
C         -6.28353        1.88037        3.70575
H         -7.35217        2.14283        3.71705
H         -5.72296        2.75100        4.08319
H         -6.13449        1.05936        4.42549
