108
Cat083.ts34.5.log	Energy: -1356306.2997801
C          1.62723       -1.87381       -2.52310
H          1.88783       -1.48569       -3.51213
H          2.46915       -2.35656       -2.01438
C          0.32371       -2.48472       -2.38760
H         -0.37160       -2.44527       -3.23142
H          0.25894       -3.43900       -1.84980
H         -0.23911       -1.93322       -1.03915
Ir         0.46109       -0.44111       -1.42334
C          1.32438       -1.34306        2.04051
C          3.53210       -1.01832        0.25650
C          2.05862        1.28434        1.16023
C         -1.35482        2.42705       -0.54893
C         -2.98825        0.28832       -1.57616
C         -1.91622        0.04258        1.10354
P         -1.44999        0.58660       -0.60508
P          1.79873       -0.42463        0.49852
C          0.81408        0.99920       -2.58490
O          1.03802        1.90889       -3.26936
H          2.18196       -1.36803        2.73455
H          0.54003       -0.74232        2.53141
C          0.80085       -2.74637        1.78201
H          0.00930       -2.68852        1.01403
H          1.59490       -3.37060        1.33457
C          0.25562       -3.42695        3.02935
H         -0.49297       -2.76414        3.50168
H          1.06167       -3.54138        3.77675
C         -0.38108       -4.78184        2.75431
H         -1.17197       -4.65805        1.99285
H          0.36946       -5.44981        2.29594
C         -0.96643       -5.43726        3.99442
H         -1.41663       -6.41495        3.76514
H         -1.75120       -4.80684        4.44338
H         -0.19472       -5.59845        4.76436
H          3.45578       -2.07492       -0.05296
H          4.05245       -1.01150        1.22813
C          4.28526       -0.21776       -0.79581
H          3.62402       -0.08030       -1.66774
H          4.49275        0.79815       -0.41133
C          5.60241       -0.84311       -1.25871
H          5.36693       -1.85309       -1.64550
C          6.19751       -0.03228       -2.40379
H          5.48959        0.05617       -3.24226
H          7.12202       -0.49205       -2.78656
H          6.44695        0.98939       -2.07115
C          6.60445       -0.99806       -0.12004
H          7.54880       -1.43845       -0.47630
H          6.22128       -1.64472        0.68381
H          6.84286       -0.01662        0.32479
H          1.05605        1.63961        1.45647
H          2.33333        1.88368        0.27837
C          3.04517        1.47784        2.30149
H          2.76270        0.83173        3.14978
H          4.05174        1.14621        1.98916
C          3.14932        2.92028        2.80864
H          2.13215        3.24054        3.10563
C          4.03953        2.98483        4.04445
H          3.66997        2.32328        4.84366
H          4.09267        4.00699        4.45029
H          5.06839        2.67031        3.80152
C          3.64649        3.87813        1.73140
H          3.73139        4.90404        2.12181
H          2.97546        3.91192        0.86036
H          4.64475        3.57567        1.37187
H         -0.39716        2.65489       -0.05270
H         -1.20717        2.72506       -1.60145
C         -2.48480        3.22753        0.08057
H         -3.45523        2.93391       -0.35560
H         -2.55272        2.99421        1.15653
C         -2.29919        4.73036       -0.08531
H         -2.24094        4.97330       -1.16172
H         -1.32164        5.02501        0.33816
C         -3.40181        5.55583        0.56286
H         -4.37603        5.25317        0.13920
H         -3.45526        5.30719        1.63790
C         -3.21364        7.05468        0.39330
H         -4.02497        7.62365        0.87201
H         -3.19301        7.33633       -0.67174
H         -2.26352        7.39067        0.83898
H         -2.81392        0.75714       -2.55897
H         -3.82775        0.82212       -1.10267
C         -3.29070       -1.19242       -1.75074
H         -2.43274       -1.65296       -2.26519
H         -3.34722       -1.69010       -0.76426
C         -4.57527       -1.50290       -2.52200
H         -4.52886       -0.95103       -3.47979
C         -4.64949       -2.99171       -2.84107
H         -3.77266       -3.32293       -3.41877
H         -5.55109       -3.23611       -3.42399
H         -4.68118       -3.58843       -1.91380
C         -5.82457       -1.04742       -1.77501
H         -6.73721       -1.27522       -2.34732
H         -5.82205        0.03554       -1.57926
H         -5.90581       -1.56329       -0.80274
H         -1.21723        0.56050        1.78284
H         -1.61343       -1.01476        1.12595
C         -3.34878        0.19082        1.59916
H         -3.59740        1.25564        1.72534
H         -4.05752       -0.19587        0.84730
C         -3.61646       -0.54231        2.91942
H         -2.82544       -0.24579        3.63450
C         -4.95965       -0.11637        3.50070
H         -4.99653        0.96970        3.67865
H         -5.16433       -0.62248        4.45685
H         -5.78104       -0.36844        2.80908
C         -3.55905       -2.05776        2.75319
H         -3.71657       -2.57065        3.71464
H         -2.59239       -2.40077        2.35556
H         -4.34521       -2.40153        2.05984
