76
Cat006.ts34.5.log	Energy: -1249255.6334441
C          1.89848       -2.47825        1.55775
H          2.20462       -3.49234        1.28680
H          2.70439       -1.88413        2.00247
C          0.57074       -2.31547        2.10452
H         -0.10984       -3.17161        2.12124
H          0.45058       -1.68113        2.99099
H          0.02068       -1.01350        1.39417
Ir         0.74345       -1.56588       -0.02117
C          3.93272       -0.11074       -0.41964
O          1.83690        1.00237       -1.72976
O          2.26029        1.45571        0.76439
C         -0.90222       -0.44264       -2.94464
O         -2.42795       -1.64167       -1.19842
O         -1.56040        0.69047       -0.56071
P         -1.04072       -0.75189       -1.16752
P          2.14521        0.20420       -0.31452
C          1.02754       -2.97479       -1.26739
O          1.21618       -3.79770       -2.05595
H          4.25188       -0.63131        0.49369
H          4.11880       -0.76717       -1.28106
H          4.50206        0.82465       -0.51893
C          2.52452        2.18237       -2.11232
H          2.85767        2.73061       -1.21369
H          3.41931        1.91153       -2.70005
C          1.58824        3.04105       -2.93516
H          2.15441        3.90655       -3.32165
H          1.26819        2.46234       -3.81987
C          0.36687        3.51108       -2.15810
H          0.69532        4.15628       -1.32379
H         -0.10704        2.63447       -1.68785
C         -0.64006        4.25349       -3.02034
H         -0.19049        5.13932       -3.49753
H         -1.02528        3.60832       -3.82695
H         -1.50381        4.59894       -2.43188
C          1.09347        1.91982        1.42782
H          1.02281        3.00585        1.24173
H          0.19682        1.44388        0.99655
C          1.17715        1.63578        2.91197
H          0.24166        1.98570        3.38418
H          1.20389        0.54054        3.05103
C          2.38096        2.26803        3.59429
H          2.32497        3.36564        3.48187
H          3.29004        1.95625        3.05442
C          2.49593        1.90485        5.06535
H          1.60588        2.22641        5.63048
H          2.59219        0.81512        5.19952
H          3.37403        2.37501        5.53358
H         -0.09792        0.29146       -3.09057
H         -0.61600       -1.38702       -3.42823
H         -1.84961       -0.08884       -3.37442
C         -2.69601       -2.60404       -0.18749
H         -3.40225       -3.32021       -0.63679
H         -1.75986       -3.14013        0.04990
C         -3.27700       -1.99116        1.07099
H         -3.34029       -2.78641        1.83523
H         -2.55897       -1.24937        1.46353
C         -4.64365       -1.34831        0.88693
H         -5.35807       -2.11242        0.53289
H         -4.58389       -0.60168        0.07833
C         -5.17315       -0.69713        2.15391
H         -5.27830       -1.43173        2.96856
H         -4.49043        0.09030        2.51311
H         -6.15869       -0.23414        1.99379
C         -2.69721        1.35761       -1.09414
H         -2.37822        2.00381       -1.93174
H         -3.41479        0.61810       -1.48636
C         -3.34486        2.18438       -0.00520
H         -4.27704        2.61508       -0.41154
H         -3.64669        1.50584        0.81036
C         -2.45930        3.28983        0.55044
H         -2.20664        3.99515       -0.26035
H         -1.50370        2.84769        0.87112
C         -3.09788        4.03913        1.70769
H         -4.04807        4.51065        1.40850
H         -3.31995        3.35974        2.54667
H         -2.43895        4.83353        2.08982
