90
Cat054.ts34.5.log	Energy: -1208406.8555519
C         -0.89813       -3.00484       -0.82358
H         -1.15484       -3.76666       -0.08167
H         -1.68109       -2.85576       -1.57542
C          0.47628       -2.97068       -1.27143
H          1.20854       -3.62445       -0.78829
H          0.66111       -2.87749       -2.34893
H          0.85970       -1.45517       -1.29019
Ir        -0.05436       -1.26867        0.12307
C         -1.05912        1.23511       -2.38381
C         -3.15213       -0.40084       -1.34754
C         -1.99150        1.64846        0.30458
C          1.18117        0.94858        2.53777
C          3.23466       -0.60511        1.24455
C          1.98757        1.55775       -0.23045
P          1.58925        0.16007        0.91854
P         -1.50897        0.28647       -0.85267
C         -0.54891       -1.77820        1.86778
O         -0.86519       -2.06220        2.94732
H         -0.30272        1.97720       -2.07895
C         -0.51160        0.35061       -3.49138
H         -1.25681       -0.38624       -3.83008
H          0.36739       -0.21120       -3.13928
H         -1.93815        1.80211       -2.73380
H         -0.21289        0.94530       -4.36850
H         -2.95119       -1.15282       -2.12939
H         -3.74611        0.39687       -1.82290
C         -3.89295       -1.04650       -0.18621
H         -3.18539       -1.69453        0.35747
H         -4.20564       -0.26897        0.53554
C         -5.12186       -1.86660       -0.58299
H         -4.78245       -2.63933       -1.29905
C         -5.69506       -2.57970        0.63599
H         -4.93826       -3.21522        1.12112
H         -6.55155       -3.21685        0.36562
H         -6.04600       -1.85106        1.38605
C         -6.18750       -1.02221       -1.27304
H         -7.06758       -1.62863       -1.53834
H         -5.81431       -0.55969       -2.19932
H         -6.53156       -0.21090       -0.60870
H         -1.05891        2.19755        0.52219
H         -2.25441        1.13175        1.24078
C         -3.08401        2.61550       -0.12522
H         -2.81032        3.08277       -1.08620
H         -4.02254        2.06348       -0.31196
C         -3.37499        3.72951        0.88623
H         -2.42423        4.26532        1.07149
C         -4.36876        4.72784        0.30343
H         -4.00326        5.15613       -0.64309
H         -4.55923        5.55997        0.99883
H         -5.33614        4.24027        0.09628
C         -3.87369        3.18409        2.22002
H         -4.09588        4.00083        2.92402
H         -3.13789        2.52435        2.70319
H         -4.80143        2.60340        2.08096
H          1.04681        0.09626        3.22450
C          2.12141        1.98305        3.13446
H          2.16629        2.89720        2.52415
H          3.14756        1.60080        3.24471
H          0.17117        1.36753        2.40296
H          1.77615        2.28016        4.13704
H          3.08014       -1.29137        2.09411
H          3.93815        0.17488        1.57654
C          3.77457       -1.37356        0.04790
H          3.04024       -2.15216       -0.21227
H          3.83082       -0.71145       -0.83665
C          5.14615       -2.01766        0.26091
H          5.08209       -2.63683        1.17565
C          5.48109       -2.93913       -0.90636
H          4.71188       -3.71573       -1.03866
H          6.44902       -3.44291       -0.75902
H          5.54316       -2.36898       -1.84864
C          6.24859       -0.98426        0.46798
H          7.22564       -1.46863        0.62001
H          6.06068       -0.34326        1.34252
H          6.33785       -0.32807       -0.41478
H          1.17430        2.29262       -0.09411
H          1.83433        1.13024       -1.23231
C          3.34545        2.24082       -0.14496
H          3.54622        2.57050        0.88582
H          4.14106        1.51493       -0.38777
C          3.49372        3.44841       -1.07661
H          2.70291        4.17422       -0.80606
C          4.84305        4.12190       -0.85409
H          4.97553        4.42228        0.19709
H          4.95231        5.02211       -1.47841
H          5.66865        3.43704       -1.11055
C          3.30659        3.07861       -2.54435
H          3.45144        3.95532       -3.19420
H          2.30217        2.67946       -2.75106
H          4.03970        2.31311       -2.85059
