86
Cat056.ts34.5.log	Energy: -1582271.9596491
C          1.02644       -3.18099        0.51761
H          1.37694       -3.82839       -0.29036
H          1.76912       -3.02398        1.30505
C         -0.36210       -3.27202        0.89033
H         -1.05062       -3.88204        0.29930
H         -0.61327       -3.28203        1.95792
H         -0.81442       -1.77691        1.06141
Ir         0.10691       -1.40296       -0.29516
C          0.77541        1.05452        2.27926
O          2.85806       -0.21599        1.35792
O          1.64526        1.44673       -0.26484
C         -1.45137        0.84165       -2.55971
O         -3.09092       -0.64731       -1.10231
O         -1.78046        1.18383        0.16533
P         -1.54882       -0.02601       -0.96127
P          1.33628        0.17788        0.78104
C          0.74023       -1.75134       -2.05612
O          1.17459       -1.92634       -3.11223
H         -0.16370        1.53886        1.96850
C          0.54418        0.09913        3.43864
H          1.48122       -0.38998        3.74327
H         -0.17403       -0.68833        3.16006
H          1.49819        1.84304        2.53857
H          0.13818        0.63352        4.31031
C          3.72408       -1.02904        0.67742
C          3.84719       -0.97345       -0.70863
H          3.24207       -0.26208       -1.27371
C          4.50037       -1.91408        1.42730
H          4.38514       -1.93316        2.51259
C          4.73074       -1.82987       -1.37692
C          4.82690       -1.77575       -2.87376
H          3.83762       -1.92407       -3.33364
H          5.19658       -0.79400       -3.21085
H          5.50841       -2.54513       -3.26239
C          5.39097       -2.75352        0.76777
H          6.00204       -3.45190        1.34479
C          5.50044       -2.72045       -0.62314
H          6.19494       -3.39445       -1.13091
C          2.26958        2.63899       -0.03114
C          3.34333        2.78254        0.84796
H          3.70922        1.91137        1.39297
C          1.81231        3.73534       -0.76904
H          0.99199        3.59190       -1.47456
C          3.95623        4.03047        1.02030
C          5.10335        4.16821        1.97927
H          4.77540        3.99432        3.01686
H          5.89196        3.43089        1.76337
H          5.55098        5.17055        1.93187
C          2.42333        4.97243       -0.60259
H          2.06959        5.83028       -1.17977
C          3.48423        5.12460        0.29015
H          3.95791        6.10152        0.41411
H         -1.03698        0.07575       -3.23562
C         -2.70481        1.46476       -3.15546
H         -3.05525        2.32959       -2.57729
H         -3.52260        0.73215       -3.19887
H         -0.64113        1.57673       -2.41437
H         -2.49596        1.80651       -4.18059
C         -3.53504       -1.62505       -0.25253
C         -3.49554       -1.44739        1.12957
H         -3.10025       -0.51382        1.53598
C         -4.02069       -2.80971       -0.80467
H         -4.02810       -2.92470       -1.88957
C         -3.92858       -2.46405        1.98908
C         -3.85724       -2.26501        3.47547
H         -2.83757       -1.99098        3.79024
H         -4.52277       -1.44919        3.80013
H         -4.14826       -3.17409        4.01961
C         -4.46549       -3.81594        0.04633
H         -4.84576       -4.74972       -0.37478
C         -4.41506       -3.64982        1.43112
H         -4.75605       -4.45383        2.08819
C         -2.58950        2.28297        0.02896
C         -3.97734        2.16142        0.03665
H         -4.42630        1.17012        0.11654
C         -1.97994        3.53435       -0.06685
H         -0.89067        3.59872       -0.04943
C         -4.78570        3.29764       -0.08474
C         -6.28007        3.15527       -0.10250
H         -6.61282        2.60064       -0.99452
H         -6.63746        2.59561        0.77570
H         -6.77894        4.13418       -0.10896
C         -2.78164        4.66552       -0.18148
H         -2.31582        5.65092       -0.25843
C         -4.17152        4.54978       -0.19696
H         -4.79082        5.44541       -0.29074
