48
Cat002.ts34.5.log	Energy: -863310.1245983
C         -1.00150       -2.58060       -0.65549
H         -0.94104       -3.35409        0.11530
H         -2.00221       -2.48550       -1.09054
C          0.13142       -2.45799       -1.54520
H          1.02356       -3.06220       -1.35587
H         -0.06923       -2.35191       -2.61842
H          0.40248       -0.92139       -1.65466
Ir         0.01284       -0.79793       -0.00890
C         -1.88313        1.45287       -2.13911
C         -3.43098       -0.07651       -0.26779
C         -1.84313        2.16772        0.60748
C          1.86632        1.60075        1.82685
C          3.45974       -0.09151        0.20178
C          1.88831        2.00633       -1.03154
P          1.78026        0.67521        0.24608
P         -1.75029        0.66983       -0.47755
C          0.15789       -1.31302        1.79727
O          0.24985       -1.57242        2.92476
H         -0.94816        1.99186       -2.34899
H         -1.98396        0.65779       -2.89282
H         -2.72889        2.15245       -2.23088
H         -3.39881       -0.58840        0.70761
C         -4.64047        0.83751       -0.37509
H         -4.68843        1.34971       -1.34831
H         -4.64336        1.61053        0.40848
H         -3.48463       -0.88460       -1.01557
H         -5.57342        0.26251       -0.26557
H         -2.66963        2.81511        0.26812
C         -1.97629        1.83258        2.08341
H         -1.19430        1.12472        2.39741
H         -2.94708        1.36222        2.30399
H         -0.91311        2.73065        0.41994
H         -1.89973        2.73651        2.70723
H          1.83983        0.87537        2.65289
H          2.77934        2.20886        1.91046
H          0.98403        2.24913        1.92101
H          3.47100       -0.79261        1.05216
C          3.75491       -0.82514       -1.09467
H          3.78833       -0.13868       -1.95571
H          2.97666       -1.57626       -1.29594
H          4.21945        0.68147        0.40944
H          4.72610       -1.34049       -1.04620
H          0.94847        2.57442       -0.93430
C          3.09150        2.93373       -0.99119
H          4.03388        2.38873       -1.15226
H          3.17243        3.46319       -0.02963
H          1.81558        1.48521       -1.99996
H          3.02014        3.69957       -1.77911
