94
Cat057.ts34.5.log	Energy: -1492124.8593781
C          0.07476       -2.92915        2.27699
H         -0.28423       -3.95512        2.15634
H          1.12959       -2.87430        2.56943
C         -0.83547       -1.98368        2.88698
H         -1.86091       -2.29785        3.10492
H         -0.43914       -1.32174        3.66850
H         -0.69613       -0.70804        2.03767
Ir        -0.61409       -1.68837        0.66341
C          2.26114        0.53783        1.00809
C          2.78792       -2.18060        0.16051
C          1.65221       -0.26463       -1.73120
C         -2.44886       -0.42728       -2.10595
C         -3.87521       -0.65317        0.42431
C         -1.99224        1.55503       -0.06906
P         -2.18309       -0.27816       -0.27729
P          1.48094       -0.83803        0.05716
C         -1.12488       -3.09453       -0.48572
O         -1.43053       -3.93368       -1.22543
H          1.70887        1.44201        0.71489
C          2.17311        0.34229        2.51038
H          2.67616       -0.58006        2.84403
H          1.12345        0.28999        2.83316
H          3.29940        0.68555        0.67429
H          2.64134        1.18528        3.04151
H          2.81315       -2.46845        1.22244
H          2.35268       -3.03330       -0.38142
C          4.14991       -1.83784       -0.34669
C          4.53407       -2.16603       -1.65426
H          3.85662       -2.74779       -2.28522
C          5.06311       -1.13547        0.45263
H          4.79462       -0.90673        1.48792
C          5.77382       -1.76850       -2.14949
H          6.06051       -2.03266       -3.17026
C          6.30592       -0.71690       -0.03058
C          7.23298        0.08873        0.83266
H          8.28729       -0.13523        0.61405
H          7.08579        1.16834        0.66020
H          7.05538       -0.09911        1.90121
C          6.64998       -1.03868       -1.34989
H          7.62023       -0.72736       -1.74666
H          2.29440       -1.00023       -2.23692
H          0.64860       -0.35719       -2.16505
C          2.18759        1.11883       -1.93338
C          1.32475        2.19077       -2.18326
H          0.25493        2.00188       -2.30437
C          3.56062        1.38123       -1.83585
H          4.24915        0.55104       -1.66231
C          1.82056        3.48921       -2.29796
H          1.13514        4.31711       -2.49719
C          4.07513        2.67456       -1.94211
C          5.54878        2.92244       -1.79239
H          6.12008        1.98825       -1.88882
H          5.91843        3.63489       -2.54532
H          5.77686        3.35155       -0.80214
C          3.18447        3.73314       -2.16826
H          3.56723        4.75370       -2.25747
H         -3.03328       -1.35433       -2.23002
C         -3.07886        0.73049       -2.86716
H         -2.43432        1.62195       -2.85802
H         -4.05770        1.01926       -2.46090
H         -1.45425       -0.66184       -2.51705
H         -3.22599        0.45214       -3.92242
H         -3.99018       -1.73036        0.23073
H         -3.76335       -0.55603        1.51451
C         -5.04615        0.12256       -0.08989
C         -5.36020        1.39141        0.41566
H         -4.77717        1.80932        1.24071
C         -5.83663       -0.39605       -1.12233
H         -5.60738       -1.39271       -1.51248
C         -6.41405        2.12260       -0.12635
H         -6.64684        3.11377        0.27061
C         -6.90129        0.32159       -1.67565
C         -7.74442       -0.27668       -2.76423
H         -7.15273       -0.93359       -3.41836
H         -8.55852       -0.88742       -2.33934
H         -8.20944        0.50051       -3.38751
C         -7.17403        1.59764       -1.16919
H         -7.99695        2.18100       -1.59109
H         -1.32519        1.86760       -0.88448
H         -2.97118        2.02102       -0.27211
C         -1.41811        2.03549        1.23081
C         -1.96200        1.68123        2.47329
H         -2.83336        1.02629        2.52573
C         -0.29900        2.87119        1.21542
H          0.13629        3.15264        0.25166
C         -1.38766        2.14756        3.65185
H         -1.81851        1.86014        4.61410
C          0.29803        3.34431        2.38976
C          1.51637        4.21761        2.31231
H          2.28898        3.76247        1.67213
H          1.27549        5.19884        1.87249
H          1.95247        4.39278        3.30576
C         -0.26196        2.96950        3.61346
H          0.18999        3.32039        4.54511
