76
Cat022.ts34.5.log	Energy: -1344219.5978799
C          0.35086       -1.60293        2.91594
H          0.01507       -2.60134        3.20960
H          1.41068       -1.42294        3.13595
C         -0.57233       -0.51205        3.11156
H         -1.59014       -0.72262        3.45093
H         -0.18845        0.43004        3.52272
H         -0.47971        0.32785        1.77448
Ir        -0.38497       -1.13019        0.94776
C          2.57822        0.79215        1.26482
C          2.90948       -1.88834        0.24096
C          1.95821        0.23547       -1.53339
C         -1.86444       -0.73338       -2.27261
C         -3.70716       -0.90248       -0.07204
C         -2.17199        1.54088       -0.58902
P         -1.98549       -0.30952       -0.49252
P          1.72226       -0.44133        0.20939
C         -0.81251       -2.89404        0.42911
O         -1.08960       -3.95813        0.05989
H          2.02188        1.73746        1.20680
H          2.53101        0.43263        2.30388
H          3.62311        0.97859        0.98220
H          2.41654       -2.66651       -0.36087
H          2.87904       -2.23739        1.28485
C          4.30661       -1.63516       -0.22255
C          5.26755       -1.07834        0.63424
H          5.00710       -0.88792        1.67834
C          4.68488       -1.90943       -1.54506
H          3.96450       -2.37895       -2.22096
C          6.54578       -0.76975        0.17557
H          7.27615       -0.33297        0.86106
C          5.96364       -1.60390       -2.00722
H          6.23280       -1.82460       -3.04292
C          6.89701       -1.02198       -1.15084
H          7.89915       -0.77888       -1.51122
H          0.95408        0.26401       -1.97505
H          2.53641       -0.51721       -2.08913
C          2.60975        1.57876       -1.64244
C          4.00273        1.72263       -1.57245
H          4.63202        0.83542       -1.47275
C          1.83195        2.73441       -1.78690
H          0.74643        2.63908       -1.87654
C          4.59138        2.98322       -1.62610
H          5.67930        3.07043       -1.57043
C          2.41847        3.99802       -1.83645
H          1.78878        4.88409       -1.94869
C          3.80312        4.12757       -1.75070
H          4.26747        5.11571       -1.78975
H         -1.87614       -1.82860       -2.37124
H         -2.68333       -0.30292       -2.86746
H         -0.90014       -0.37285       -2.65663
H         -3.90091       -0.52211        0.94213
H         -3.58991       -1.99249        0.02702
C         -4.80311       -0.55999       -1.03208
C         -5.09581       -1.41379       -2.10560
H         -4.54216       -2.35116       -2.20708
C         -5.54741        0.62168       -0.91177
H         -5.36264        1.29372       -0.07023
C         -6.08234       -1.09139       -3.03370
H         -6.29358       -1.77562       -3.85913
C         -6.53539        0.94847       -1.83896
H         -7.10380        1.87408       -1.71997
C         -6.80372        0.09539       -2.90750
H         -7.57899        0.34916       -3.63408
H         -3.14823        1.75935       -1.05136
H         -1.39691        1.87255       -1.29642
C         -2.00047        2.23478        0.72661
C         -0.77593        2.82986        1.05523
H          0.03241        2.82888        0.32101
C         -3.01886        2.25001        1.68728
H         -3.98575        1.79639        1.45973
C         -0.57154        3.41539        2.30256
H          0.39339        3.87424        2.53209
C         -2.81810        2.83045        2.93809
H         -3.62751        2.82702        3.67203
C         -1.59150        3.41300        3.25277
H         -1.43338        3.86782        4.23341
