80
Cat018.ts34.5.log	Energy: -1532965.0326973
C         -1.76573       -1.40974        3.30723
H         -1.62367       -0.94576        4.28719
H         -2.81749       -1.56996        3.04920
C         -0.81197       -2.41730        2.91200
H          0.06715       -2.60201        3.53488
H         -1.18733       -3.32789        2.43060
H         -0.53165       -2.07021        1.36593
Ir        -0.51204       -0.46539        1.82479
C         -3.90086        0.16002        0.88830
O         -1.94332        1.65825       -0.23375
O         -2.28982       -0.64696       -1.11091
C          1.00968        0.69414       -1.14294
O          2.59571        0.55047        1.05157
O          1.86735       -1.64732       -0.06149
P          1.24433       -0.18098        0.42891
P         -2.15021        0.13579        0.38824
C          0.08891        0.91488        2.99890
O          0.45986        1.77846        3.66754
H         -4.20313       -0.87054        1.12444
H         -3.99553        0.76949        1.79841
H         -4.54463        0.56142        0.09271
C         -2.88505        2.36740       -0.93596
C         -3.42809        3.50747       -0.34422
H         -3.10763        3.78054        0.66319
C         -3.27389        1.99639       -2.22325
H         -2.84647        1.09895       -2.67021
C         -4.35904        4.27175       -1.04076
H         -4.77966        5.16306       -0.56662
C         -4.21063        2.77101       -2.90369
H         -4.51411        2.47167       -3.91095
C         -4.76914        3.92017       -2.33274
C         -5.75093        4.76650       -3.09047
H         -6.48921        5.22807       -2.41828
H         -6.29556        4.17725       -3.84230
H         -5.23973        5.58552       -3.62396
C         -2.40407       -2.00835       -1.18401
C         -3.66727       -2.58799       -1.30172
H         -4.54736       -1.94201       -1.32422
C         -1.26841       -2.82230       -1.17166
H         -0.27916       -2.37532       -1.06977
C         -3.79131       -3.97221       -1.40349
H         -4.78734       -4.41366       -1.49816
C         -1.40935       -4.20309       -1.27093
H         -0.51155       -4.82757       -1.25463
C         -2.66850       -4.80614       -1.38726
C         -2.79968       -6.29620       -1.51752
H         -3.82987       -6.62868       -1.32648
H         -2.13641       -6.82151       -0.81374
H         -2.52639       -6.63241       -2.53159
H          0.69138        1.72182       -0.91906
H          1.91460        0.70944       -1.76478
H          0.18274        0.19429       -1.66760
C          3.17661        1.70229        0.58004
C          2.79867        2.92665        1.13260
H          2.04332        2.94403        1.92066
C          4.15338        1.65326       -0.41220
H          4.44844        0.68971       -0.83128
C          3.39714        4.09764        0.67979
H          3.09362        5.05295        1.11729
C          4.74251        2.83716       -0.85250
H          5.50675        2.79072       -1.63326
C          4.37791        4.07804       -0.32084
C          5.02474        5.35016       -0.78735
H          4.27378        6.12022       -1.02218
H          5.63412        5.18574       -1.68716
H          5.68505        5.76924       -0.01035
C          3.03890       -1.77214       -0.76091
C          4.24643       -1.87302       -0.06910
H          4.23532       -1.82034        1.02037
C          3.02634       -1.82581       -2.15349
H          2.07460       -1.75903       -2.68435
C          5.43512       -2.01379       -0.77752
H          6.37753       -2.08371       -0.22722
C          4.22608       -1.96443       -2.84876
H          4.20775       -2.00075       -3.94147
C          5.45062       -2.05806       -2.17820
C          6.73857       -2.23322       -2.92944
H          7.55712       -1.66461       -2.46361
H          6.64473       -1.90308       -3.97377
H          7.04692       -3.29196       -2.94511
