66
Cat033.ts34.5.log	Energy: -1011196.1299520
C         -1.35547       -2.62473       -0.54980
H         -1.19085       -3.44873        0.15055
H         -2.41265       -2.46717       -0.78720
C         -0.39669       -2.47739       -1.61601
H          0.47935       -3.13125       -1.64784
H         -0.78443       -2.26797       -2.62123
H         -0.03581       -0.95623       -1.65751
Ir        -0.15546       -0.93117        0.02934
C         -1.94153        1.71876       -1.70720
C         -3.59679       -0.04929       -0.16332
C         -1.99251        1.99944        1.17210
C          2.13508        1.09817        1.75408
C          3.39416       -0.79163       -0.08753
C          1.92537        1.66167       -1.14007
P          1.85679        0.27140        0.11340
P         -1.86852        0.68481       -0.16449
C          0.11491       -1.53910        1.78598
O          0.27697       -1.88449        2.88241
H         -0.97988        2.25173       -1.76096
C         -2.13666        0.89876       -2.97149
H         -3.12364        0.41243       -3.00232
H         -1.37413        0.10812       -3.04239
H         -2.72311        2.49123       -1.61144
H         -2.05251        1.52965       -3.86964
H         -3.53350       -0.77547       -0.99284
C         -3.87279       -0.83525        1.11360
H         -4.74658       -1.49259        0.97800
H         -3.01077       -1.45715        1.39622
H         -4.10202       -0.16123        1.95367
C         -4.73257        0.91757       -0.47432
H         -4.62215        1.40739       -1.45236
H         -5.69284        0.37624       -0.48765
H         -4.82285        1.70624        0.28976
H         -3.05105        2.31341        1.18060
C         -1.63885        1.42886        2.54000
H         -1.80351        2.18733        3.32276
H         -2.23029        0.54071        2.79594
H         -0.58425        1.12274        2.56786
C         -1.14606        3.23192        0.87068
H         -1.47981        3.77070       -0.02692
H         -1.19610        3.93708        1.71603
H         -0.08595        2.96901        0.73128
H          1.68111        0.40213        2.47572
C          3.52535        1.47870        2.24189
H          4.02466        2.21415        1.59659
H          4.18284        0.60119        2.32526
H          1.47056        1.97665        1.74668
H          3.45390        1.92104        3.24800
H          3.51429       -1.17858        0.94170
C          3.13944       -1.99410       -0.98765
H          4.02759       -2.64623       -1.00577
H          2.27963       -2.57072       -0.62252
H          2.92509       -1.69018       -2.02432
C          4.68283       -0.08002       -0.49057
H          4.92419        0.77958        0.14579
H          5.52815       -0.78463       -0.42737
H          4.63783        0.27102       -1.53219
H          0.91599        2.08170       -0.99437
C          2.91863        2.79529       -0.91242
H          2.74407        3.58852       -1.65810
H          2.80174        3.25465        0.07937
H          3.96317        2.47327       -1.02023
C          1.98062        1.12665       -2.56600
H          1.24094        0.32712       -2.71959
H          1.76096        1.93338       -3.28370
H          2.97455        0.72674       -2.81687
