76
Cat096.ts34.5.log	Energy: -1344207.4043292
C         -0.69611       -2.45819       -2.10016
H         -0.64976       -3.51018       -1.80232
H         -1.62730       -2.19645       -2.61622
C          0.52851       -1.86742       -2.59690
H          1.45988       -2.43878       -2.53990
H          0.47053       -1.27121       -3.51766
H          0.52469       -0.47148       -1.95516
Ir        -0.00245       -1.17459       -0.52271
C         -2.31971        1.09704       -2.06758
C         -3.44111       -0.57511       -0.00669
C         -1.82001        1.55506        0.85122
C          1.55576        0.76047        2.15609
C          3.35746       -0.73124        0.45010
C          2.04433        1.58417       -0.59977
P          1.71192        0.09499        0.42120
P         -1.85414        0.26127       -0.45087
C         -0.13286       -2.48715        0.82791
O         -0.25822       -3.29817        1.64580
H         -2.49644        0.19178       -2.67847
C         -3.60056        1.92171       -2.07079
H         -3.78691        2.31705       -3.08275
H         -4.47584        1.32509       -1.78139
H         -3.53708        2.78323       -1.38844
C         -1.15229        1.84565       -2.70484
H         -0.20992        1.28793       -2.60944
H         -1.35180        2.00954       -3.77559
H         -0.98728        2.83480       -2.25372
C         -3.56813       -1.95542       -0.19078
C         -4.53171        0.13707        0.51553
C         -5.84169       -1.89001        0.62409
C         -5.72146       -0.51513        0.82840
C         -4.76186       -2.60791        0.11573
H         -2.70769       -2.51736       -0.55821
H         -4.84050       -3.68773       -0.03169
H         -6.77452       -2.40193        0.87306
H         -6.55896        0.05386        1.23973
H         -4.44439        1.21052        0.69722
C         -1.58555        2.91380        0.61335
C         -1.94024        1.12180        2.18290
C         -1.58004        3.37016        2.99032
C         -1.82568        2.01738        3.23949
C         -1.46458        3.81273        1.67535
H         -1.47985        3.28272       -0.40611
H         -1.27922        4.86961        1.46691
H         -1.48420        4.07474        3.81968
H         -1.92107        1.65669        4.26653
H         -2.11822        0.06234        2.38577
H          0.69779        1.44990        2.08104
C          1.16558       -0.36324        3.10613
H          1.02815        0.03851        4.12250
H          0.22925       -0.84652        2.80054
H          1.94766       -1.13807        3.15544
C          2.77541        1.51793        2.66397
H          3.10074        2.31339        1.97819
H          2.54036        1.98761        3.63274
H          3.62629        0.83825        2.82155
C          3.41055       -2.12288        0.58389
C          4.55801       -0.01032        0.37849
C          5.82516       -2.05663        0.59301
C          5.78297       -0.67029        0.44427
C          4.63680       -2.78094        0.66520
H          2.47341       -2.68553        0.60262
H          4.66148       -3.86793        0.77371
H          6.78700       -2.57281        0.64449
H          6.71122       -0.09736        0.37827
H          4.53631        1.07488        0.25719
C          2.62532        1.40991       -1.86508
C          1.63093        2.86493       -0.22226
C          2.35861        3.76214       -2.34709
C          1.78473        3.94554       -1.09233
C          2.78301        2.48787       -2.72946
H          2.95049        0.41315       -2.17552
H          3.23800        2.33320       -3.71084
H          2.47854        4.60860       -3.02732
H          1.45113        4.93864       -0.78065
H          1.16878        3.03151        0.75088
