42
Cat030.ts34.5.log	Energy: -814011.7032299
C         -1.66747       -2.17629       -0.54235
H         -1.43682       -3.12205       -0.04371
H         -2.71988       -1.88690       -0.45073
C         -1.01116       -1.93242       -1.80898
H         -0.24714       -2.63406       -2.15663
H         -1.62472       -1.55309       -2.63590
H         -0.55208       -0.45182       -1.74291
Ir        -0.16737       -0.70150       -0.10953
C         -2.17585        2.36530       -0.38877
C         -3.23012        0.35131        1.32217
C         -0.99418        1.87235        2.13692
C          2.90602        0.67639        0.95342
C          2.84423       -0.19855       -1.79938
C          1.57540        2.23446       -1.07393
P          1.76867        0.50367       -0.48855
P         -1.61847        0.95094        0.67344
C          0.62795       -1.68140        1.29118
O          1.12081       -2.25000        2.17314
H         -1.28247        2.98443       -0.57166
C         -2.78430        1.92118       -1.70762
H         -3.70146        1.33066       -1.55595
H         -2.07461        1.29081       -2.26602
H         -2.88207        2.98733        0.18962
H         -3.04883        2.78354       -2.33862
H         -3.81414       -0.10397        0.50981
H         -3.03741       -0.42927        2.07200
H         -3.81779        1.16553        1.77540
H         -1.72618        2.60396        2.51602
H         -0.75312        1.14752        2.92761
H         -0.06597        2.39785        1.86874
H          3.10545       -0.35469        1.28822
C          4.19958        1.44790        0.75292
H          4.01729        2.49384        0.46256
H          4.83562        0.99140       -0.02066
H          2.29152        1.12605        1.75114
H          4.78628        1.46719        1.68434
H          3.15334       -1.20785       -1.49245
H          2.24774       -0.29461       -2.71810
H          3.73240        0.41855       -2.00599
H          0.90075        2.23177       -1.94199
H          1.10915        2.83762       -0.28127
H          2.53289        2.69496       -1.36064
