76
Cat099.ts34.5.log	Energy: -2497497.2336244
C         -0.36932       -2.81433       -2.05308
H         -0.33972       -3.84526       -1.68755
H         -1.23144       -2.61086       -2.69943
C          0.89517       -2.21725       -2.42145
H          1.82619       -2.75555       -2.21897
H          0.93942       -1.66620       -3.37016
H          0.80521       -0.78531       -1.84905
Ir         0.08629       -1.43123       -0.47055
C         -2.04533        0.57957       -2.52721
C         -3.37585       -0.83998       -0.39526
C         -1.90709        1.42904        0.34034
C          1.51089        0.36999        2.40964
C          3.36579       -0.82495        0.54191
C          1.87870        1.49626       -0.24444
P          1.67087       -0.11145        0.61341
P         -1.76495       -0.02374       -0.77464
C         -0.23108       -2.69487        0.89452
O         -0.47642       -3.49129        1.69835
H         -2.00314       -0.39341       -3.05147
C         -3.39789        1.20612       -2.84423
H         -3.45805        1.43227       -3.92122
H         -4.22864        0.53062       -2.59905
H         -3.56556        2.14968       -2.30416
C         -0.87008        1.40969       -3.03618
H          0.09149        0.95075       -2.76560
H         -0.91535        1.49527       -4.13321
H         -0.86135        2.43185       -2.63058
C         -3.48773       -2.23029       -0.49879
H         -2.60383       -2.81394       -0.76291
C         -4.50636       -0.10573       -0.00924
H         -4.44332        0.97953        0.09801
C         -4.69476       -2.87621       -0.24549
H         -4.77546       -3.96149       -0.32377
C         -5.71697       -0.73734        0.25596
H         -6.59335       -0.16373        0.56197
C         -5.80522       -2.12371        0.13080
Cl        -7.30827       -2.91703        0.46007
C         -1.87118        1.14901        1.71600
H         -1.78126        0.10874        2.04337
C         -2.01507        2.76508       -0.05734
H         -2.04654        3.02822       -1.11341
C         -1.93407        2.16236        2.66386
H         -1.90739        1.93529        3.73099
C         -2.06974        3.79553        0.88131
H         -2.14683        4.83621        0.56180
C         -2.02257        3.49056        2.23843
Cl        -2.07399        4.76371        3.40960
H          0.58587        0.96983        2.42015
C          1.28483       -0.86526        3.27067
H          1.18681       -0.56948        4.32704
H          0.37653       -1.41035        2.98632
H          2.13427       -1.56378        3.20157
C          2.66161        1.21391        2.94207
H          2.87323        2.09159        2.31446
H          2.41523        1.57813        3.95229
H          3.58431        0.61986        3.02223
C          4.52596       -0.03804        0.56007
H          4.45035        1.05125        0.57436
C          3.49971       -2.21724        0.50571
H          2.59174       -2.82705        0.46115
C          5.78743       -0.62464        0.54285
H          6.69061       -0.01231        0.54793
C          4.75537       -2.81861        0.50309
H          4.85719       -3.90474        0.47852
C          5.89420       -2.01553        0.51912
Cl         7.46118       -2.74976        0.49774
C          1.25541        2.66231        0.20972
H          0.70315        2.66926        1.15103
C          2.55688        1.53623       -1.47157
H          3.04326        0.63393       -1.85179
C          1.30221        3.83816       -0.53630
H          0.80667        4.74150       -0.17747
C          2.61411        2.70230       -2.22490
H          3.14095        2.72765       -3.18008
C          1.97825        3.85170       -1.75265
Cl         2.02107        5.30318       -2.69546
