82
Cat035.ts34.5.log	Energy: -1298550.5926608
C          0.11180       -3.27137       -1.30597
H         -0.64555       -3.65476       -1.99492
H          1.12821       -3.31624       -1.71109
C         -0.07478       -3.54465        0.09736
H         -0.99967       -4.02214        0.43117
H          0.79574       -3.85785        0.68517
H          0.24876       -2.14597        0.83444
Ir        -0.54073       -1.39553       -0.44082
C          1.44710       -0.04017       -3.00756
O          1.50815        1.23024       -0.57906
O          2.83060       -0.93394       -1.04037
C         -1.61942        1.86827        0.44290
O         -2.98271       -0.31465        1.38945
O         -0.77062        0.46848        2.42818
P         -1.45958        0.13157        0.97513
P          1.30384       -0.29502       -1.19759
C         -2.13043       -1.34955       -1.48415
O         -3.09449       -1.30985       -2.12017
H          1.55422       -1.05855       -3.41488
C          0.26051        0.66959       -3.63401
H          0.12518        1.68026       -3.22005
H         -0.66907        0.11025       -3.45241
H          2.40049        0.47561       -3.20995
H          0.39231        0.76872       -4.72190
C          2.63233        2.04887       -0.86954
H          2.97035        2.45940        0.09712
H          3.45758        1.43459       -1.26517
C          2.30041        3.18348       -1.81928
H          3.20966        3.80189       -1.92571
H          2.09124        2.77995       -2.82429
C          1.13416        4.04910       -1.36706
H          1.34836        4.45181       -0.36096
H          0.24609        3.40823       -1.25052
C          0.82422        5.18496       -2.32745
H          1.68625        5.86128       -2.44568
H          0.56971        4.80009       -3.32835
H         -0.02714        5.78912       -1.97914
C          3.16745       -1.86927       -0.03241
H          2.52067       -1.73018        0.85144
H          2.98299       -2.88884       -0.41382
C          4.62669       -1.71919        0.34151
H          4.89895       -2.57150        0.98902
H          5.23465       -1.82128       -0.57437
C          4.96155       -0.41253        1.04487
H          4.36276       -0.33708        1.96803
H          4.63792        0.42762        0.41041
C          6.43703       -0.26717        1.37672
H          6.78372       -1.08176        2.03320
H          7.05671       -0.29483        0.46591
H          6.64386        0.68386        1.89080
H         -0.57629        2.21612        0.38495
C         -2.32676        2.05096       -0.88834
H         -3.34750        1.64054       -0.87581
H         -1.77932        1.53849       -1.69156
H         -2.10516        2.42903        1.25820
H         -2.39550        3.11785       -1.14966
C         -3.77966        0.38197        2.33682
H         -4.21420       -0.38834        2.99571
H         -3.14907        1.02977        2.96903
C         -4.88660        1.17318        1.66725
H         -5.50973        1.62183        2.46154
H         -4.45088        2.02083        1.11112
C         -5.75000        0.34052        0.72990
H         -6.22143       -0.47712        1.30352
H         -5.09744       -0.15258       -0.00895
C         -6.81613        1.15771        0.01970
H         -7.49904        1.64383        0.73557
H         -6.36336        1.95378       -0.59380
H         -7.42535        0.53226       -0.64996
C          0.15291       -0.36550        3.10028
H         -0.16171       -0.40488        4.15676
H          0.10629       -1.39127        2.69614
C          1.55418        0.19259        2.96901
H          2.25666       -0.50898        3.45370
H          1.80896        0.21421        1.89615
C          1.71341        1.58750        3.55618
H          1.45454        1.56319        4.62994
H          0.97104        2.24972        3.08142
C          3.10952        2.16029        3.37762
H          3.87106        1.52990        3.86508
H          3.37780        2.22654        2.31124
H          3.19203        3.17093        3.80552
