88
Cat065.ts34.5.log	Energy: -1347857.7977561
C         -1.48739       -2.12176       -2.43607
H         -1.05364       -3.09513       -2.68039
H         -2.55143       -2.13881       -2.18705
C         -0.97955       -0.98064       -3.14802
H         -0.13698       -1.10240       -3.83395
H         -1.70114       -0.22925       -3.48897
H         -0.72923        0.12473       -2.03323
Ir        -0.22244       -1.10914       -1.00121
C         -2.15195        1.01224        1.20592
O         -3.43883       -0.63619       -0.49649
O         -2.43627       -1.65977        1.53346
C          3.04622       -0.73579        0.19733
O          2.11753        1.39552       -1.03032
O          1.06694        0.89670        1.24523
P          1.47904        0.14252       -0.17131
P         -2.01949       -0.59819        0.33052
C          0.67948       -2.71159       -0.55260
O          1.18636       -3.69923       -0.22716
H         -3.11885        1.04280        1.73768
H         -1.34969        1.04787        1.95841
C         -2.01285        2.17991        0.23915
H         -0.96878        2.21720       -0.10998
H         -2.62540        1.99355       -0.66045
C         -2.39937        3.52175        0.84248
H         -1.83663        3.68143        1.77931
H         -3.46515        3.49996        1.13600
C         -2.15681        4.69388       -0.09787
H         -1.09185        4.70388       -0.39161
H         -2.71863        4.52733       -1.03413
C         -2.53610        6.03957        0.49785
H         -2.34781        6.86496       -0.20539
H         -1.96064        6.24583        1.41481
H         -3.60399        6.07007        0.76797
C         -4.72399       -0.64240        0.12801
H         -4.60069       -0.46556        1.21077
C         -5.33906       -2.01404       -0.06243
H         -4.69110       -2.77606        0.39217
H         -5.44611       -2.23908       -1.13494
H         -6.33369       -2.06811        0.40613
C         -5.54378        0.47969       -0.47605
H         -5.07071        1.45542       -0.29007
H         -5.63024        0.34308       -1.56494
H         -6.55683        0.49860       -0.04649
C         -1.87434       -1.70262        2.83911
H         -2.05366       -0.72661        3.33136
C         -0.37953       -1.96976        2.82230
H          0.16655       -1.16019        2.31804
H         -0.16169       -2.90942        2.29321
H         -0.00420       -2.04976        3.85411
C         -2.64844       -2.76696        3.59008
H         -3.72544       -2.54571        3.57145
H         -2.49001       -3.74924        3.11969
H         -2.31828       -2.82207        4.63800
H          2.83531       -1.37031        1.07550
H          3.14630       -1.43350       -0.65005
C          4.34282        0.04683        0.35624
H          4.44995        0.73608       -0.49636
H          4.31386        0.67918        1.25749
C          5.55883       -0.86638        0.44061
H          5.60578       -1.49675       -0.46588
H          5.43440       -1.56945        1.28453
C          6.87108       -0.11165        0.60111
H          6.98581        0.59405       -0.24072
H          6.81880        0.51535        1.50919
C          8.08646       -1.02143        0.67732
H          9.01834       -0.44755        0.79369
H          8.18427       -1.63373       -0.23355
H          8.01360       -1.71454        1.53091
C          1.41629        2.08869       -2.06129
H          0.33716        1.87257       -1.96051
C          1.89407        1.57533       -3.40416
H          1.71272        0.49325       -3.47505
H          2.97355        1.75812       -3.52134
H          1.36267        2.07479       -4.22837
C          1.65010        3.57194       -1.86437
H          1.28876        3.89569       -0.87766
H          2.72385        3.80553       -1.93053
H          1.11959        4.15280       -2.63348
C          1.89833        1.81564        1.95674
H          2.74833        2.09883        1.31394
C          2.39893        1.14837        3.22380
H          2.96579        0.23446        2.99675
H          1.54898        0.86826        3.86488
H          3.05330        1.82690        3.79184
C          1.08587        3.06177        2.24634
H          0.72138        3.51390        1.31359
H          0.21491        2.81792        2.87366
H          1.69553        3.80760        2.77815
