64
Cat063.ts34.5.log	Energy: -1150629.9304988
C          2.44587       -2.05956        0.35563
H          2.81687       -2.52298       -0.56320
H          3.20478       -1.46207        0.87358
C          1.54289       -2.84581        1.16628
H          1.17785       -3.80423        0.78734
H          1.71021       -2.87095        2.24974
H          0.44516       -1.80555        1.61068
Ir         0.50064       -1.18554        0.05119
C          2.71062        1.45647        0.96826
O          0.43544        2.04658       -0.37462
O          0.21740        1.47473        2.12087
C         -2.52604        0.62446        0.03533
O         -2.67619       -1.77111       -1.01617
O         -2.32825       -1.70132        1.53631
P         -1.76705       -1.03235        0.14177
P          0.96142        0.93259        0.73696
C          0.53987       -1.36129       -1.84287
O          0.55572       -1.42695       -2.99536
H          2.78206        2.47522        1.38283
H          3.13324        0.77684        1.72879
C          3.48973        1.34974       -0.33701
H          3.28469        0.36858       -0.79801
H          3.10207        2.09554       -1.05150
C          4.98957        1.53278       -0.15969
H          5.36700        0.77544        0.55192
H          5.19254        2.51242        0.31145
C          5.76712        1.42847       -1.46425
H          5.55586        0.45003       -1.93020
H          5.38428        2.18338       -2.17359
C          7.26711        1.60183       -1.29024
H          7.79992        1.52076       -2.24977
H          7.68195        0.83660       -0.61437
H          7.50890        2.58640       -0.85798
C          0.39022        3.42502       -0.11233
H         -0.31956        3.65780        0.69938
H          1.38143        3.83692        0.15107
H          0.04703        3.92540       -1.02904
C          0.75435        2.32552        3.10050
H          1.64423        1.88849        3.58429
H          1.02483        3.32028        2.70607
H         -0.01838        2.46304        3.87074
H         -2.33236        1.07932        1.02321
H         -1.86106        1.16543       -0.65835
C         -3.97655        0.77265       -0.40198
H         -4.12265        0.22421       -1.34591
H         -4.65745        0.30434        0.32648
C         -4.37111        2.23216       -0.58443
H         -3.69342        2.70152       -1.32087
H         -4.20638        2.77947        0.36218
C         -5.81339        2.42123       -1.03297
H         -5.97262        1.86660       -1.97452
H         -6.48659        1.95128       -0.29391
C         -6.20144        3.87847       -1.22423
H         -7.24822        3.98267       -1.54783
H         -5.56863        4.36317       -1.98517
H         -6.08421        4.44943       -0.28885
C         -2.40473       -3.10303       -1.39384
H         -1.32502       -3.32099       -1.32509
H         -2.95207       -3.81114       -0.74923
H         -2.73609       -3.23318       -2.43343
C         -3.69772       -1.76571        1.85386
H         -4.06383       -0.80624        2.25757
H         -4.30932       -2.03988        0.97828
H         -3.82284       -2.53609        2.62822
