84
Cat082.ts34.5.log	Energy: -1159105.4761666
C         -2.22371       -0.85076       -2.50955
H         -1.96727       -1.52507       -3.33183
H         -3.16192       -1.11716       -2.01033
C         -1.94838        0.55405       -2.71073
H         -1.41714        0.86764       -3.61427
H         -2.72594        1.27327       -2.42396
H         -1.30575        1.03930       -1.37049
Ir        -0.50234       -0.44753       -1.28555
C         -2.14092        0.26507        1.92367
C         -2.96240       -2.14233        0.63111
C         -0.35791       -1.97567        1.86750
C          2.74754       -0.40894        0.01702
C          2.19255        1.79040       -1.75262
C          1.03739        1.80565        0.92117
P          1.36842        0.69106       -0.52196
P         -1.49490       -1.02588        0.75759
C          0.55895       -1.81788       -2.02459
O          1.22611       -2.66826       -2.44607
H         -2.69521       -0.21878        2.74618
H         -1.25557        0.74257        2.37631
C         -2.99984        1.32046        1.24555
H         -2.46036        1.69391        0.35719
H         -3.92543        0.85913        0.85722
C         -3.35748        2.48812        2.15385
H         -2.42547        2.94445        2.53710
H         -3.89460        2.11682        3.04575
C         -4.19496        3.55748        1.46654
H         -3.65557        3.91639        0.57191
H         -5.12557        3.09915        1.08746
C         -4.53336        4.73418        2.36734
H         -5.13810        5.48896        1.84218
H         -3.62088        5.23380        2.73123
H         -5.10323        4.40882        3.25264
H         -3.38211       -2.31486        1.63744
H         -3.72665       -1.57948        0.06823
C         -2.66483       -3.45908       -0.07229
H         -1.96169       -4.05124        0.53888
H         -2.13359       -3.24327       -1.01388
C         -3.91461       -4.27998       -0.34820
H         -4.45331       -4.52322        0.58209
H         -4.61335       -3.73060       -0.99965
H         -3.67013       -5.22876       -0.84974
H          0.08218       -2.76104        1.23054
H          0.47252       -1.28314        2.09056
C         -0.90940       -2.56792        3.15720
H         -1.73037       -3.26633        2.92355
H         -1.35584       -1.77208        3.77658
C          0.15708       -3.29660        3.96207
H          0.59964       -4.12101        3.38043
H          0.97756       -2.61706        4.24412
H         -0.25477       -3.72477        4.88877
H          2.28356       -1.14460        0.69419
H          3.01090       -0.98282       -0.88823
C          3.99371        0.18788        0.65338
H          4.41880        0.97309        0.00451
H          3.72769        0.68627        1.60114
C          5.06460       -0.85903        0.93268
H          5.34055       -1.35846       -0.01361
H          4.63886       -1.65271        1.57339
C          6.31464       -0.29225        1.59106
H          6.73269        0.50267        0.94803
H          6.03166        0.20715        2.53494
C          7.38042       -1.34056        1.86661
H          8.27043       -0.90122        2.34202
H          7.70805       -1.83077        0.93578
H          7.00085       -2.12951        2.53573
H          3.04359        2.31186       -1.28216
H          2.60996        1.10848       -2.51292
C          1.24626        2.78314       -2.41224
H          0.78236        3.42615       -1.64336
H          0.41721        2.21789       -2.86638
C          1.93102        3.64972       -3.45711
H          2.74623        4.24654       -3.01682
H          2.37012        3.03263       -4.25729
H          1.22262        4.34908       -3.92689
H          0.00300        2.15576        0.77490
H          0.99939        1.13868        1.80089
C          1.94777        2.99683        1.19437
H          1.93439        3.67502        0.32562
H          2.99328        2.67019        1.30376
C          1.51935        3.76338        2.43729
H          0.48156        4.12274        2.34450
H          1.56633        3.12641        3.33528
H          2.16167        4.63916        2.61551
