104
Cat068.ts34.5.log	Energy: -1730085.3174785
C          1.61804       -2.23430       -2.47348
H          1.58428       -2.08134       -3.55639
H          2.63360       -2.35209       -2.07967
C          0.57146       -3.04845       -1.89745
H         -0.26201       -3.37934       -2.52460
H          0.86428       -3.81612       -1.16966
H          0.17727       -2.28733       -0.59121
Ir         0.32739       -0.84980       -1.45934
C          1.98641       -0.69137        1.77305
C          3.61421        0.10784       -0.48259
C          1.51258        1.78881        0.43774
C         -1.93621        1.65583       -0.44844
C         -3.16598       -0.91854       -0.95930
C         -1.61029       -0.56858        1.40166
P         -1.60769       -0.15154       -0.38028
P          1.86795        0.02024        0.07908
C          0.05525        0.30677       -2.92160
O         -0.10349        1.06750       -3.78393
H          2.72187       -0.13672        2.38039
H          1.00011       -0.51068        2.22761
C          2.26635       -2.18464        1.79582
H          1.50071       -2.68747        1.18038
H          3.23682       -2.40469        1.31716
C          2.23575       -2.74949        3.20953
H          1.32211       -2.39221        3.71563
H          3.08091       -2.33891        3.79211
C          2.26289       -4.26907        3.27428
H          1.42785       -4.66450        2.66856
H          3.18390       -4.64546        2.79493
C          2.15797       -4.80203        4.69433
H          2.15570       -5.90235        4.72106
H          1.23111       -4.45126        5.17731
H          3.00126       -4.45627        5.31405
C          4.70645        0.15728        0.39802
H          4.54847        0.10988        1.47771
C          3.87414        0.18102       -1.85265
H          3.03269        0.12352       -2.54844
C          6.00385        0.27112       -0.07577
H          6.85737        0.30434        0.60417
C          5.17223        0.31198       -2.34510
H          5.32907        0.36894       -3.42251
C          6.24951        0.35396       -1.45418
O          7.54068        0.46597       -1.82313
C          7.84624        0.55673       -3.18609
H          7.38562        1.44552       -3.65254
H          8.93779        0.64361       -3.25929
H          7.52205       -0.34147       -3.74098
C          1.44381        2.68285       -0.64655
H          1.68316        2.32733       -1.65166
C          1.18160        2.27490        1.70233
H          1.23376        1.62421        2.57597
C          1.02897        3.99091       -0.47597
H          0.95819        4.67889       -1.32041
C          0.73816        3.58937        1.88804
H          0.46729        3.92169        2.89081
C          0.64431        4.45138        0.79369
O          0.19056        5.72028        0.85652
C         -0.24917        6.21629        2.08814
H          0.56140        6.23661        2.83819
H         -0.59370        7.24302        1.91054
H         -1.09040        5.62376        2.49116
H         -1.07578        2.12109        0.05830
H         -1.81250        1.91565       -1.51248
C         -3.24825        2.20585        0.08714
H         -4.08930        1.82288       -0.51440
H         -3.42823        1.84545        1.11458
C         -3.25723        3.72955        0.08142
H         -3.11357        4.09030       -0.95301
H         -2.37791        4.09998        0.63951
C         -4.52217        4.34274        0.66348
H         -5.39702        3.98278        0.09379
H         -4.66455        3.96856        1.69329
C         -4.50310        5.86293        0.66929
H         -5.42548        6.28249        1.09895
H         -4.39771        6.26426       -0.35136
H         -3.65494        6.24859        1.25855
C         -4.31176       -0.99959       -0.15030
H         -4.27752       -0.63573        0.87971
C         -3.23502       -1.41606       -2.26075
H         -2.33273       -1.37656       -2.87983
C         -5.48609       -1.55140       -0.63569
H         -6.38088       -1.62581       -0.01471
C         -4.41282       -1.96639       -2.76577
H         -4.42894       -2.34422       -3.78833
C         -5.54857       -2.03610       -1.95154
O         -6.73042       -2.55443       -2.33674
C         -6.85600       -3.05576       -3.63798
H         -6.16318       -3.89547       -3.82353
H         -7.88697       -3.41829       -3.73758
H         -6.67714       -2.27500       -4.39817
C         -1.59140       -1.93038        1.75333
H         -1.69202       -2.68745        0.97070
C         -1.48243        0.37282        2.42123
H         -1.48624        1.43885        2.19019
C         -1.42356       -2.33088        3.06547
H         -1.39522       -3.38721        3.33967
C         -1.30060       -0.01639        3.75332
H         -1.18495        0.75082        4.51935
C         -1.25484       -1.37371        4.07931
O         -1.03684       -1.85840        5.31806
C         -0.79951       -0.95601        6.36207
H         -1.66565       -0.29392        6.53735
H         -0.62371       -1.55614        7.26357
H          0.09137       -0.33289        6.16770
