96
Cat090.ts34.5.log	Energy: -1257703.7600982
C          0.51092       -1.33829       -2.77154
H          0.74241       -2.40505       -2.83915
H         -0.31310       -1.03688       -3.43027
C          1.62762       -0.43197       -2.63419
H          2.63531       -0.83638       -2.50117
H          1.62929        0.47888       -3.24625
H          1.17475        0.59155       -1.51076
Ir         0.46567       -0.71500       -0.71376
C         -1.64059        1.57990       -2.42093
C         -2.95422       -0.83671       -1.42891
C         -2.30905        1.25856        0.44725
C          0.22365        0.05994        2.81007
C          2.86354       -0.65908        1.86202
C          1.68264        1.94341        1.24907
P          1.29821        0.13622        1.27814
P         -1.60573        0.35249       -1.00458
C          0.46489       -2.46925       -0.03311
O          0.44984       -3.54895        0.39480
H         -0.97382        1.08970       -3.15305
C         -2.97575        1.82847       -3.11320
H         -2.83591        2.52293       -3.95832
H         -3.40956        0.90426       -3.52036
H         -3.71882        2.27992       -2.43974
C         -0.96579        2.87734       -1.98924
H         -0.01214        2.67686       -1.47587
H         -0.75258        3.51446       -2.86232
H         -1.60611        3.46009       -1.30770
H         -3.89441       -0.30122       -1.63990
H         -2.63735       -1.31657       -2.37062
C         -3.16617       -1.89594       -0.35772
H         -2.18819       -2.33221       -0.09649
H         -3.54736       -1.42363        0.56570
C         -4.11794       -3.00666       -0.77718
H         -3.74132       -3.47221       -1.70611
H         -5.10544       -2.58032       -1.03373
C         -4.28696       -4.07991        0.28934
H         -3.29343       -4.49061        0.54124
H         -4.65928       -3.61109        1.21785
C         -5.22010       -5.20587       -0.12502
H         -5.31945       -5.96438        0.66630
H         -4.85160       -5.71635       -1.02943
H         -6.23005       -4.82683       -0.35127
H         -2.27062        0.51820        1.26335
H         -1.56335        2.02492        0.71691
C         -3.70009        1.87087        0.37415
H         -3.71743        2.68480       -0.36923
H         -4.42604        1.11980        0.01809
C         -4.16825        2.41615        1.71732
H         -3.43888        3.16254        2.08239
H         -4.15742        1.60063        2.46360
C         -5.55453        3.04349        1.67384
H         -5.55994        3.85634        0.92598
H         -6.27749        2.29479        1.30408
C         -6.01723        3.58165        3.01806
H         -7.02111        4.02803        2.95430
H         -5.33162        4.35764        3.39510
H         -6.05619        2.78268        3.77596
H         -0.51113        0.86304        2.62619
C         -0.53073       -1.26037        2.89473
H         -1.21326       -1.25648        3.75979
H         -1.11623       -1.44566        1.98378
H          0.15497       -2.11365        3.01818
C          0.95363        0.36666        4.11362
H          1.52219        1.30786        4.07717
H          0.22897        0.45493        4.93906
H          1.65244       -0.44014        4.38195
H          3.33218       -0.01921        2.62895
H          2.54866       -1.58721        2.37131
C          3.85123       -1.00786        0.75855
H          3.31669       -1.59355       -0.00848
H          4.18774       -0.09073        0.24616
C          5.06193       -1.77952        1.26266
H          4.72006       -2.70021        1.77008
H          5.58730       -1.18960        2.03663
C          6.04284       -2.14826        0.15824
H          5.51145       -2.73474       -0.61182
H          6.37829       -1.22616       -0.34931
C          7.24998       -2.92741        0.65452
H          7.93877       -3.17868       -0.16637
H          6.94542       -3.87192        1.13356
H          7.81914       -2.35027        1.40132
H          0.71550        2.42991        1.03404
H          1.98091        2.26418        2.26100
C          2.71700        2.39112        0.22872
H          3.71900        2.04695        0.53634
H          2.51111        1.89887       -0.73733
C          2.74249        3.90007        0.02871
H          2.93901        4.40086        0.99444
H          1.73777        4.23948       -0.28412
C          3.76887        4.35690       -0.99826
H          4.77188        4.01896       -0.68273
H          3.57054        3.84360       -1.95594
C          3.77933        5.86123       -1.21552
H          4.52975        6.15965       -1.96315
H          4.00892        6.39857       -0.28121
H          2.79856        6.22031       -1.56718
