104
Cat078.ts34.5.log	Energy: -1730167.5448258
C          1.28243       -2.20140       -2.62941
H          1.38879       -1.81522       -3.64722
H          2.21455       -2.60129       -2.21604
C          0.05486       -2.89045       -2.31386
H         -0.75949       -2.90100       -3.04317
H          0.11486       -3.82138       -1.73745
H         -0.28110       -2.34749       -0.85966
Ir         0.15773       -0.82862       -1.40504
C          3.46706       -0.90842       -0.10675
O          1.78528        1.07147        0.66874
O          1.57304       -1.16202        1.78504
C         -1.71608        0.74859        1.21371
O         -2.80751        0.78193       -1.29078
O         -2.61847       -1.50609       -0.01622
P         -1.75392       -0.12768       -0.38820
P          1.70793       -0.52145        0.22269
C          0.26395        0.57759       -2.68343
O          0.38799        1.43269       -3.44774
H          4.05530       -0.68858        0.79761
H          3.49197       -2.00277       -0.25330
C          4.02525       -0.18697       -1.32428
H          3.30801       -0.26515       -2.15922
H          4.11446        0.88766       -1.09575
C          5.38248       -0.71904       -1.76057
H          5.29272       -1.79423       -2.00196
H          6.09063       -0.65893       -0.91414
C          5.96078        0.02168       -2.95792
H          5.24399       -0.03423       -3.79614
H          6.04536        1.09457       -2.71004
C          7.31355       -0.51014       -3.40215
H          7.70477        0.04569       -4.26766
H          7.25055       -1.57199       -3.69012
H          8.05821       -0.43343       -2.59344
C          2.78740        1.74625        1.30860
C          3.28313        1.33301        2.54467
H          2.87566        0.42822        2.99659
C          3.24130        2.92275        0.68828
C          2.65473        3.36077       -0.61927
H          3.21987        4.20148       -1.04364
H          2.63232        2.54217       -1.35339
H          1.60773        3.68199       -0.49458
C          4.26825        2.08940        3.17738
H          4.65778        1.76697        4.14582
C          4.22500        3.66201        1.35061
H          4.59201        4.58092        0.88530
C          4.74167        3.25515        2.58041
H          5.51059        3.85378        3.07351
C          1.21415       -2.45917        2.04606
C         -0.09952       -2.88569        1.84123
H         -0.83498       -2.19334        1.43738
C          2.17839       -3.32975        2.58349
C          3.58256       -2.87226        2.84345
H          4.18485       -2.86244        1.92093
H          3.60429       -1.85054        3.24793
H          4.08415       -3.54087        3.55646
C         -0.46650       -4.19497        2.14054
H         -1.49725       -4.51457        1.97008
C          1.77882       -4.63629        2.88623
H          2.51586       -5.32106        3.31504
C          0.47690       -5.07740        2.66106
H          0.19824       -6.10490        2.90540
H         -2.72056        0.76877        1.66424
H         -1.08486        0.09562        1.84140
C         -1.10879        2.14700        1.14388
H         -0.31205        2.16581        0.38317
H         -1.87890        2.86640        0.82420
C         -0.51020        2.58097        2.47413
H          0.27498        1.85906        2.75799
H         -1.27930        2.52567        3.26627
C          0.08521        3.98077        2.43765
H          0.77332        4.05218        1.57862
H         -0.71786        4.71386        2.24352
C          0.83723        4.34784        3.70608
H          1.23664        5.37232        3.65898
H          1.68897        3.66741        3.86533
H          0.18597        4.28370        4.59307
C         -3.60964        1.83287       -0.90587
C         -4.69566        1.65004       -0.05293
H         -4.91749        0.65748        0.33785
C         -3.31591        3.09259       -1.45501
C         -2.14039        3.26477       -2.36282
H         -1.19467        3.09806       -1.82291
H         -2.15524        2.53521       -3.18478
H         -2.11416        4.27703       -2.78783
C         -5.49821        2.73753        0.28835
H         -6.34549        2.58759        0.96118
C         -4.14304        4.16189       -1.10191
H         -3.92702        5.14901       -1.51951
C         -5.22212        3.99727       -0.23439
H         -5.84869        4.85307        0.02644
C         -3.89829       -1.59949        0.45869
C         -4.14100       -1.54822        1.83069
H         -3.30018       -1.42227        2.51515
C         -4.93522       -1.81120       -0.46527
C         -4.63353       -1.89976       -1.92877
H         -5.52803       -2.18317       -2.49921
H         -4.26030       -0.93825       -2.31318
H         -3.84042       -2.63914       -2.11899
C         -5.44594       -1.66106        2.30662
H         -5.63798       -1.61275        3.38080
C         -6.23306       -1.92562        0.04111
H         -7.05671       -2.08370       -0.66020
C         -6.49544       -1.84076        1.40829
H         -7.52155       -1.92838        1.77206
