88
Cat070.ts34.5.log	Energy: -2596102.9202349
C          1.59820       -1.51891       -2.97845
H          1.55345       -1.08875       -3.98326
H          2.61754       -1.72801       -2.63612
C          0.55938       -2.45633       -2.62365
H         -0.28014       -2.61639       -3.30666
H          0.85764       -3.38143       -2.11455
H          0.16158       -2.05500       -1.16108
Ir         0.31634       -0.44366       -1.62910
C          1.99388       -1.11744        1.52762
C          3.61510        0.21578       -0.47062
C          1.53696        1.62633        0.85489
C         -1.93767        1.74726       -0.04135
C         -3.18210       -0.62261       -1.14627
C         -1.61066       -0.86145        1.21876
P         -1.61167       -0.02223       -0.41104
P          1.86899       -0.00549        0.06668
C          0.05948        1.05327       -2.74805
O         -0.08728        2.00844       -3.38829
H          2.74442       -0.74565        2.24545
H          1.01573       -1.04137        2.02745
C          2.24385       -2.57318        1.16864
H          1.45267       -2.89537        0.47008
H          3.19608       -2.68048        0.61994
C          2.24037       -3.47404        2.39630
H          1.35992       -3.23156        3.01654
H          3.11791       -3.24489        3.02786
C          2.21871       -4.96056        2.07335
H          1.34579       -5.17138        1.42934
H          3.10468       -5.22117        1.46772
C          2.15989       -5.83652        3.31453
H          2.12125       -6.90622        3.05907
H          1.26974       -5.60215        3.92077
H          3.04178       -5.67945        3.95620
C          3.85664        0.67594       -1.77066
H          3.00727        0.83479       -2.44033
C          4.71048       -0.02165        0.36845
H          4.56126       -0.37844        1.38946
C          5.15166        0.91234       -2.22157
H          5.33504        1.27502       -3.23421
C          6.01239        0.19402       -0.07351
H          6.86494        0.00383        0.58050
C          6.22558        0.66577       -1.36817
Cl         7.84244        0.93960       -1.92228
C          1.23467        1.77717        2.21258
H          1.29966        0.92868        2.89434
C          1.45931        2.75742        0.02784
H          1.67345        2.66211       -1.03913
C          0.81035        3.00453        2.72351
H          0.55153        3.11086        3.77852
C          1.05851        3.99008        0.52578
H          0.98279        4.85973       -0.12870
C          0.70913        4.10113        1.87332
Cl         0.12211        5.61137        2.48727
H         -1.07132        2.07306        0.55661
H         -1.81595        2.25452       -1.01246
C         -3.24263        2.16470        0.61781
H         -4.08865        1.95413       -0.05723
H         -3.42897        1.56663        1.52636
C         -3.22237        3.64346        0.98490
H         -3.06945        4.24202        0.06866
H         -2.33941        3.84928        1.61653
C         -4.47330        4.12529        1.70405
H         -5.35845        3.92808        1.07369
H         -4.61805        3.52273        2.61867
C         -4.41479        5.60061        2.06681
H         -5.31433        5.92361        2.61224
H         -4.32800        6.22859        1.16561
H         -3.53964        5.81860        2.69995
C         -3.25711       -0.77949       -2.53345
H         -2.35934       -0.58767       -3.13011
C         -4.31456       -0.89764       -0.36851
H         -4.27099       -0.79571        0.71860
C         -4.44074       -1.18720       -3.14249
H         -4.50257       -1.30875       -4.22511
C         -5.50080       -1.31508       -0.96311
H         -6.38386       -1.53571       -0.36129
C         -5.55652       -1.45360       -2.35064
Cl        -7.02964       -1.97427       -3.09514
C         -1.48962       -0.18494        2.43569
H         -1.49609        0.90520        2.46629
C         -1.59169       -2.26425        1.22687
H         -1.68358       -2.80966        0.28364
C         -1.32045       -0.88582        3.63119
H         -1.20836       -0.35528        4.57821
C         -1.43293       -2.97510        2.40812
H         -1.40635       -4.06598        2.40770
C         -1.28091       -2.27667        3.60808
Cl        -1.01178       -3.15674        5.07457
