60
Cat024.ts34.5.log	Energy: -961910.4569843
C         -0.12087       -2.58885       -1.80932
H          0.20477       -3.53394       -1.36561
H         -1.08450       -2.66433       -2.32437
C          0.90182       -1.76735       -2.41488
H          1.95001       -2.06919       -2.33135
H          0.68270       -1.31429       -3.38943
H          0.61504       -0.30749       -1.90645
Ir         0.18663       -0.98267       -0.41059
C         -2.85163       -0.40397       -2.22474
C         -3.17567       -0.73438        0.57048
C         -2.16294        1.76157       -0.49594
C          0.73748        1.23704        2.29656
C          3.10456        0.21408        1.13090
C          1.59132        2.24647       -0.28221
P          1.38032        0.68131        0.67012
P         -1.95695       -0.07433       -0.65159
C          0.42213       -2.08647        1.09300
O          0.55747       -2.71670        2.05889
H         -2.28418        0.03163       -3.06060
H         -2.90687       -1.49057       -2.38124
H         -3.87453        0.00161       -2.22731
H         -4.18941       -0.37018        0.32693
H         -3.17738       -1.82578        0.40847
C         -2.81942       -0.42849        2.01762
H         -2.83517        0.66415        2.18044
H         -1.78012       -0.74971        2.19531
C         -3.74904       -1.10238        3.01457
H         -4.79518       -0.78722        2.87009
H         -3.71518       -2.19803        2.90598
H         -3.46842       -0.86302        4.05168
H         -1.61101        2.05397        0.41311
H         -1.58804        2.18550       -1.33802
C         -3.56803        2.34684       -0.45931
H         -4.12096        1.92968        0.39890
H         -4.12802        2.03912       -1.35808
C         -3.56236        3.86581       -0.36409
H         -3.03874        4.20576        0.54403
H         -3.04881        4.31795       -1.22779
H         -4.58390        4.27456       -0.33186
H          0.64748        0.35213        2.94333
H          1.39215        1.97439        2.78479
H         -0.26728        1.66360        2.17049
H          3.57463        1.03207        1.70472
H          2.99399       -0.64066        1.82021
C          3.96093       -0.18740       -0.06054
H          4.09283        0.67905       -0.73254
H          3.40428       -0.94211       -0.64166
C          5.32228       -0.73138        0.34259
H          5.90188        0.01129        0.91449
H          5.21781       -1.62695        0.97553
H          5.91968       -1.01344       -0.53788
H          1.97232        1.93716       -1.26999
H          0.57059        2.61882       -0.46777
C          2.46428        3.33966        0.31733
H          3.48889        2.95897        0.46445
H          2.09399        3.60800        1.32116
C          2.51047        4.58742       -0.55267
H          2.90785        4.35945       -1.55459
H          1.50463        5.01637       -0.68792
H          3.14919        5.36648       -0.10940
