90
Cat032.ts34.5.log	Energy: -1208404.6568466
C         -0.82332       -2.99808       -0.93658
H         -1.09454       -3.77818       -0.21924
H         -1.57693       -2.85228       -1.71846
C          0.56779       -2.92841       -1.32572
H          1.29263       -3.57616       -0.82355
H          0.79484       -2.81434       -2.39316
H          0.92004       -1.40696       -1.30312
Ir        -0.05617       -1.26272        0.07391
C         -1.02668        1.21141       -2.46429
C         -3.12802       -0.43524       -1.46364
C         -2.02125        1.65064        0.19173
C          1.01185        0.96195        2.55891
C          3.14447       -0.58860        1.40360
C          1.99021        1.58366       -0.14910
P          1.52548        0.17927        0.96720
P         -1.50564        0.27516       -0.93545
C         -0.60845       -1.81404        1.78856
O         -0.96045       -2.12329        2.84996
H         -0.25737        1.93741       -2.15281
C         -0.48615        0.31380       -3.56484
H         -1.24288       -0.40715       -3.91183
H          0.37761       -0.26465       -3.20234
H         -1.89099        1.79510       -2.82374
H         -0.16531        0.90097       -4.43907
H         -3.73501        0.34900       -1.94812
H         -2.89851       -1.17883       -2.24516
C         -3.89079       -1.10044       -0.32849
H         -3.20890       -1.78766        0.20023
H         -4.18710       -0.34076        0.41702
C         -5.12836       -1.85553       -0.79141
H         -4.82909       -2.62262       -1.52914
H         -5.80450       -1.16807       -1.33276
C         -5.88948       -2.52186        0.34623
H         -5.20580       -3.20016        0.88622
H         -6.18538       -1.75278        1.08179
C         -7.11793       -3.28959       -0.11414
H         -7.64534       -3.75860        0.73041
H         -6.84650       -4.08971       -0.82170
H         -7.83444       -2.62793       -0.62757
H         -2.29680        1.16018        1.14013
H         -1.09685        2.21284        0.41032
C         -3.11960        2.60099       -0.26138
H         -2.84599        3.07111       -1.22167
H         -4.04721        2.03530       -0.45461
C         -3.41123        3.69249        0.76052
H         -2.48699        4.26741        0.95465
H         -3.67802        3.22462        1.72571
C         -4.51970        4.64644        0.33778
H         -4.25077        5.10715       -0.62948
H         -5.44003        4.06694        0.14517
C         -4.80455        5.73373        1.36120
H         -5.60988        6.40578        1.02811
H         -3.91118        6.35172        1.54672
H         -5.11029        5.30184        2.32776
H          0.84056        0.10668        3.23368
C          1.90711        1.99987        3.21556
H          1.98223        2.91718        2.61298
H          2.92748        1.62415        3.38551
H          0.00983        1.37479        2.36252
H          1.49998        2.29009        4.19672
H          3.83511        0.17966        1.79065
H          2.92273       -1.27650        2.23693
C          3.77711       -1.35536        0.25273
H          3.05603       -2.11086       -0.09915
H          3.94328       -0.67987       -0.60608
C          5.09199       -2.02575        0.62316
H          4.92666       -2.69729        1.48529
H          5.81240       -1.26322        0.97267
C          5.70970       -2.81662       -0.52169
H          4.98458       -3.57485       -0.86661
H          5.86643       -2.14270       -1.38287
C          7.02143       -3.49093       -0.15410
H          7.44163       -4.05392       -1.00130
H          6.88658       -4.19771        0.68049
H          7.77602       -2.75222        0.16128
H          1.90997        1.17058       -1.16748
H          1.16572        2.31342       -0.06319
C          3.33575        2.27618        0.02328
H          3.45529        2.65057        1.05211
H          4.14888        1.54602       -0.12596
C          3.52337        3.42952       -0.95392
H          2.71843        4.17210       -0.80204
H          3.39235        3.05693       -1.98640
C          4.87533        4.11859       -0.83257
H          5.00269        4.48450        0.20178
H          5.67532        3.37234       -0.98432
C          5.05681        5.26942       -1.80894
H          6.04226        5.74636       -1.69735
H          4.29165        6.04757       -1.65609
H          4.97018        4.92538       -2.85222
