80
Cat026.ts34.5.log	Energy: -1532879.1675018
C         -0.97484       -2.59685       -1.19598
H         -0.84646       -3.52493       -0.63127
H         -2.00036       -2.42430       -1.54007
C          0.10025       -2.21603       -2.08053
H          1.03484       -2.78451       -2.07281
H         -0.16596       -1.86668       -3.08575
H          0.25805       -0.67900       -1.83374
Ir         0.01422       -0.97785       -0.19214
C         -1.41623        2.20506       -1.00567
C         -3.21834       -0.00600       -1.22893
C         -2.52086        1.03975        1.34204
C          1.46789        1.45856        1.87707
C          3.27201       -0.56823        0.93909
C          2.49083        1.56592       -0.79989
P          1.79286        0.38405        0.42647
P         -1.76313        0.55531       -0.26968
C          0.23648       -1.94558        1.40917
O          0.36206       -2.51975        2.40888
H         -0.60095        2.65977       -0.42533
H         -1.04956        2.07800       -2.03304
H         -2.29728        2.85939       -0.99118
C         -3.53550        0.48708       -2.49430
H         -2.95770        1.31560       -2.90834
C         -3.98034       -1.07791       -0.71636
O         -3.62234       -1.51150        0.50435
C         -4.18894       -2.67455        1.03140
H         -5.27013       -2.55498        1.22315
H         -3.67689       -2.86355        1.98323
H         -4.03557       -3.53942        0.36235
C         -4.58075       -0.05394       -3.24517
H         -4.80990        0.35038       -4.23354
C         -5.02823       -1.62423       -1.46273
H         -5.61529       -2.45262       -1.06487
C         -5.32497       -1.10730       -2.72454
H         -6.14571       -1.54076       -3.30116
C         -1.98023        0.54140        2.52495
H         -1.12657       -0.13417        2.44125
C         -3.66157        1.86727        1.42352
O         -4.17764        2.31437        0.25977
C         -5.41429        2.96647        0.25245
H         -6.20142        2.34915        0.71899
H         -5.67151        3.13217       -0.80161
H         -5.37253        3.94194        0.76892
C         -2.52118        0.85611        3.77124
H         -2.07586        0.44795        4.68087
C         -4.21371        2.18364        2.66959
H         -5.09392        2.82356        2.73728
C         -3.63843        1.68085        3.83638
H         -4.08041        1.93788        4.80245
H          1.11942        0.83378        2.71083
H          2.34936        2.04150        2.17166
H          0.64134        2.13104        1.60775
C          3.67458       -0.68684        2.26769
H          3.13670       -0.14131        3.04473
C          3.97862       -1.28736       -0.04733
O          3.53413       -1.13781       -1.30895
C          4.15188       -1.82882       -2.35345
H          5.21287       -1.54260       -2.46405
H          3.61303       -1.55337       -3.26897
H          4.08938       -2.92261       -2.21488
C          4.75484       -1.49416        2.62871
H          5.04806       -1.57710        3.67728
C          5.06567       -2.08960        0.30604
H          5.61538       -2.64379       -0.45529
C          5.44799       -2.18954        1.64495
H          6.29648       -2.82394        1.91256
C          1.91666        1.67226       -2.06408
H          1.04751        1.04443       -2.27555
C          3.63860        2.33820       -0.51801
O          4.17916        2.20099        0.70841
C          5.43124        2.76010        0.98598
H          6.19564        2.41735        0.26760
H          5.70833        2.41541        1.99033
H          5.40236        3.86398        0.98006
C          2.43444        2.52430       -3.03859
H          1.96187        2.58749       -4.02095
C          4.16940        3.19001       -1.49299
H          5.05609        3.78748       -1.27968
C          3.56297        3.28180       -2.74514
H          3.98745        3.95384       -3.49528
