86
Cat039.ts34.5.log	Energy: -1582185.0924214
C         -0.50405       -3.33826       -0.89204
H         -0.53256       -4.16195       -0.17262
H         -1.40758       -3.26439       -1.50716
C          0.76823       -3.06217       -1.51862
H          1.66226       -3.59789       -1.18538
H          0.77770       -2.89401       -2.60291
H          0.89477       -1.49947       -1.50133
Ir         0.20133       -1.53208        0.03796
C         -1.46834        0.69811       -2.29039
C         -3.21991       -0.94831       -0.69270
C         -1.91514        1.25567        0.49102
C          1.70819        0.74552        2.30069
C          3.50326       -0.42388        0.37392
C          1.66390        1.59122       -0.47615
P          1.75822        0.09768        0.57455
P         -1.56526       -0.14395       -0.65106
C          0.07910       -2.16189        1.80870
O         -0.00242       -2.50688        2.91425
H         -0.60830        1.38239       -2.21428
C         -1.26885       -0.28563       -3.43042
H         -2.11248       -0.98884       -3.51147
H         -0.35424       -0.87656       -3.27538
H         -2.35952        1.32145       -2.46772
H         -1.17301        0.24100       -4.39205
C         -4.29476       -0.45423       -1.44837
H         -4.16593        0.42451       -2.08449
C         -3.44690       -2.06307        0.11610
H         -2.61429       -2.46091        0.70226
C         -5.54099       -1.05896       -1.40347
H         -6.37864       -0.68222       -1.99367
C         -4.69799       -2.67528        0.18371
H         -4.83095       -3.54263        0.83078
C         -5.75561       -2.17626       -0.58328
O         -6.99826       -2.69767       -0.60037
C         -7.27274       -3.80973        0.20407
H         -7.11936       -3.59019        1.27550
H         -8.32805       -4.06351        0.04171
H         -6.65047       -4.67984       -0.07066
C         -1.86088        1.00780        1.87250
H         -1.60487        0.00278        2.21890
C         -2.22785        2.54921        0.07298
H         -2.27699        2.79077       -0.98977
C         -2.09989        2.01324        2.79481
H         -2.05728        1.82168        3.86877
C         -2.46009        3.57787        0.98915
H         -2.69119        4.57719        0.61865
C         -2.39509        3.31479        2.36070
O         -2.59817        4.23452        3.32515
C         -2.89842        5.54816        2.95064
H         -3.83357        5.60631        2.36578
H         -3.02488        6.12044        3.87845
H         -2.08367        6.00417        2.35964
H          1.70855       -0.16095        2.92696
C          2.80386        1.70568        2.72831
H          2.84050        2.60057        2.08863
H          3.79362        1.22799        2.68918
H          0.70460        1.18451        2.42155
H          2.63542        2.04283        3.76298
C          4.55027        0.48023        0.12831
H          4.33327        1.54328       -0.00108
C          3.81713       -1.77574        0.52119
H          2.99825       -2.48064        0.69831
C          5.86113        0.04129        0.03242
H          6.68091        0.73441       -0.16587
C          5.13254       -2.23082        0.43745
H          5.33739       -3.29473        0.55902
C          6.16517       -1.31970        0.18910
O          7.46506       -1.65396        0.07933
C          7.83181       -2.99714        0.22685
H          7.36102       -3.63816       -0.53931
H          8.92150       -3.04117        0.10498
H          7.56834       -3.38769        1.22560
C          2.10980        1.52008       -1.80782
H          2.58934        0.60547       -2.16709
C          1.03677        2.76356       -0.05617
H          0.64793        2.85059        0.96023
C          1.94387        2.58419       -2.67732
H          2.28883        2.53382       -3.71171
C          0.85737        3.84386       -0.92355
H          0.35102        4.73600       -0.55498
C          1.31134        3.76021       -2.24195
O          1.18500        4.74205       -3.15658
C          0.54678        5.92984       -2.78340
H          1.07890        6.44283       -1.96268
H          0.54743        6.58012       -3.66734
H         -0.49822        5.75403       -2.47069
