92
Cat079.ts34.5.log	Energy: -2784855.5208214
C          1.53737       -0.85863       -3.38645
H          1.02475       -0.90750       -4.35086
H          2.44821       -0.25470       -3.39527
C          1.51620       -2.03715       -2.56536
H          0.91743       -2.89947       -2.87007
H          2.43534       -2.30917       -2.03289
H          1.18504       -1.48128       -1.08921
Ir         0.10491       -0.43031       -1.81454
C          0.68413        3.06031       -1.30353
O          0.99494        1.34393        0.78354
O          2.80271        1.60328       -1.09225
C         -2.62247        0.28352        0.41081
O         -2.23912       -2.28257       -0.43829
O         -0.73876       -1.17129        1.37129
P         -1.35854       -0.89704       -0.15272
P          1.15621        1.34801       -0.88552
C         -1.25252       -0.03987       -3.09375
O         -2.05270        0.19545       -3.89098
H          1.36483        3.75969       -0.79213
H          0.87928        3.14671       -2.38536
C         -0.77315        3.35838       -0.98844
H         -1.40461        2.56828       -1.42956
H         -0.93099        3.30828        0.10313
C         -1.23049        4.71767       -1.49751
H         -1.06292        4.77262       -2.58829
H         -0.59831        5.50836       -1.05475
C         -2.69388        5.00781       -1.19598
H         -3.31614        4.21247       -1.64185
H         -2.85765        4.93960       -0.10559
C         -3.16262        6.36292       -1.69903
H         -4.22498        6.53466       -1.46821
H         -3.04245        6.44645       -2.79106
H         -2.58544        7.18203       -1.24089
C          1.27687        2.33438        1.67448
C          0.34355        2.55397        2.69161
H         -0.56506        1.94851        2.70832
C          2.45818        3.08006        1.63768
H          3.19084        2.89433        0.85190
C          0.57948        3.51910        3.66424
H         -0.14414        3.69548        4.46164
C          2.69139        4.05178        2.60766
H          3.60980        4.64070        2.58791
C          1.75377        4.27026        3.61531
Cl         2.05073        5.47900        4.82019
C          3.72237        0.59379       -1.08478
C          4.72568        0.62753       -2.05507
H          4.72399        1.43869       -2.78556
C          3.69985       -0.42689       -0.13235
H          2.92585       -0.44327        0.63613
C          5.70130       -0.36215       -2.08548
H          6.48756       -0.34690       -2.84174
C          4.67489       -1.42253       -0.16360
H          4.67465       -2.22266        0.57759
C          5.66680       -1.38892       -1.14125
Cl         6.87514       -2.63060       -1.18081
H         -3.11822       -0.14688        1.29603
H         -2.04329        1.15569        0.75527
C         -3.63166        0.68723       -0.65215
H         -3.10556        1.06632       -1.54266
H         -4.19599       -0.19824       -0.98863
C         -4.59893        1.75118       -0.15427
H         -4.02179        2.62039        0.20908
H         -5.15101        1.36810        0.72278
C         -5.58526        2.21217       -1.21746
H         -5.02421        2.54285       -2.10968
H         -6.18805        1.34936       -1.55099
C         -6.49938        3.33055       -0.74485
H         -7.20701        3.63618       -1.53010
H         -5.91934        4.22172       -0.45446
H         -7.08922        3.02193        0.13317
C         -3.33396       -2.70663        0.26574
C         -4.50077       -2.96972       -0.45435
H         -4.49834       -2.81081       -1.53436
C         -3.29999       -2.91739        1.64604
H         -2.38377       -2.71969        2.20253
C         -5.63686       -3.43339        0.19969
H         -6.55266       -3.64266       -0.35529
C         -4.43871       -3.37667        2.30321
H         -4.42445       -3.54426        3.38130
C         -5.60272       -3.63021        1.58018
Cl        -7.01743       -4.20021        2.40121
C          0.41041       -1.85354        1.63034
C          1.26870       -1.33459        2.60035
H          1.01156       -0.39155        3.08429
C          0.71814       -3.05372        0.98525
H          0.03319       -3.45918        0.23828
C          2.43913       -2.01126        2.92609
H          3.12111       -1.61217        3.67839
C          1.89647       -3.72537        1.30041
H          2.15347       -4.65896        0.79773
C          2.75071       -3.20075        2.26750
Cl         4.23139       -4.02412        2.64089
