88
Cat028.ts34.5.log	Energy: -1442829.1476270
C         -0.18688       -0.49693       -3.38857
H          0.21420       -1.28530       -4.03160
H         -1.26920       -0.35806       -3.50208
C          0.62914        0.67781       -3.19964
H          1.63829        0.70583       -3.61960
H          0.14420        1.66162       -3.23217
H          0.54784        0.97374       -1.64309
Ir         0.62273       -0.68655       -1.40262
C         -2.56437        0.82396       -0.98551
C         -2.47835       -2.05983       -0.81369
C         -1.64259       -0.42266        1.48073
C          2.23372       -1.38787        1.68585
C          3.96369       -0.46514       -0.42732
C          2.21746        1.38279        1.02242
P          2.21829       -0.29421        0.21426
P         -1.47971       -0.53350       -0.39486
C          1.23678       -2.46250       -1.57404
O          1.63038       -3.55279       -1.62347
H         -2.13171        1.77666       -0.65272
H         -2.55702        0.80851       -2.08562
H         -3.59767        0.76082       -0.61821
H         -2.50165       -2.06432       -1.91481
H         -1.83572       -2.90123       -0.51458
C         -3.84615       -2.17660       -0.22502
C         -4.05873       -2.90531        0.95285
H         -3.22651       -3.44884        1.40837
C         -4.94335       -1.52903       -0.80965
H         -4.79929       -0.98643       -1.74825
C         -5.32223       -2.95268        1.53768
H         -5.47501       -3.52649        2.45491
C         -6.21561       -1.55598       -0.23232
C         -7.35818       -0.80600       -0.85317
H         -7.47970        0.18193       -0.37786
H         -7.19406       -0.63581       -1.92667
H         -8.30937       -1.34464       -0.73147
C         -6.39154       -2.27558        0.95703
H         -7.38039       -2.31674        1.42206
H         -2.01322       -1.40167        1.82021
H         -0.61706       -0.31575        1.85770
C         -2.50312        0.68234        2.01312
C         -1.92800        1.86710        2.48454
H         -0.83998        1.96064        2.52760
C         -3.90045        0.57540        2.01838
H         -4.36473       -0.34974        1.67107
C         -2.73003        2.92172        2.91960
H         -2.26527        3.84008        3.28723
C         -4.71941        1.62085        2.44949
C         -6.21449        1.48356        2.41428
H         -6.51340        0.43854        2.25128
H         -6.67441        1.83390        3.35092
H         -6.64617        2.08671        1.59804
C         -4.11608        2.80442        2.89610
H         -4.74001        3.63479        3.23843
H          2.36841       -2.42512        1.34641
H          3.03117       -1.12997        2.39801
H          1.25507       -1.32233        2.18138
H          3.94553       -1.41123       -0.98899
H          4.07188        0.33522       -1.17502
C          5.06489       -0.45815        0.58678
C          5.68495        0.72709        1.00037
H          5.40507        1.67819        0.54203
C          5.47828       -1.66031        1.17737
H          5.01204       -2.59495        0.85075
C          6.67046        0.70340        1.98551
H          7.14531        1.63641        2.29894
C          6.46666       -1.70508        2.16348
C          6.90912       -3.01334        2.75243
H          6.14850       -3.79537        2.61756
H          7.83537       -3.36794        2.27034
H          7.11902       -2.91992        3.82829
C          7.05516       -0.50014        2.56822
H          7.82768       -0.50924        3.34207
H          1.42650        1.33408        1.78668
H          3.17613        1.50293        1.55209
C          1.95123        2.50693        0.06983
C          2.96095        3.04880       -0.73219
H          3.98891        2.69502       -0.63164
C          0.64928        2.99708       -0.08410
H         -0.14716        2.58282        0.53740
C          2.66549        4.04412       -1.66145
H          3.46372        4.46103       -2.28035
C          0.33266        3.99731       -1.00724
C         -1.08251        4.47568       -1.15997
H         -1.66448        4.31246       -0.24120
H         -1.12271        5.54639       -1.40844
H         -1.59560        3.93391       -1.97236
C          1.36262        4.51469       -1.80131
H          1.14193        5.29944       -2.53020
