64
Cat012.ts34.5.log	Energy: -2398905.1563450
C         -0.66645       -3.30498       -1.45965
H         -0.74328       -4.22520       -0.87338
H         -1.53936       -3.12394       -2.09737
C          0.63493       -2.96948       -1.98292
H          1.50266       -3.57353       -1.70286
H          0.69581       -2.62026       -3.02063
H          0.81245       -1.42476       -1.69334
Ir         0.03297       -1.68426       -0.22048
C         -1.79489        0.17211       -2.66912
C         -3.37837       -0.75935       -0.50417
C         -1.67999        1.44293       -0.09658
C          1.50130        0.00884        2.52447
C          3.34136       -0.81502        0.52679
C          1.67517        1.43138        0.02588
P          1.59601       -0.26460        0.71733
P         -1.65815       -0.21381       -0.87837
C         -0.24739       -2.57590        1.42066
O         -0.41569       -3.09165        2.44348
H         -0.86427        0.65368       -3.00249
H         -1.89413       -0.78483       -3.20189
H         -2.65693        0.80852       -2.91873
C         -4.46686        0.09316       -0.73445
H         -4.30096        1.10281       -1.12074
C         -3.61755       -2.02933        0.02451
H         -2.76723       -2.68623        0.22181
C         -5.76595       -0.31522       -0.45638
H         -6.61440        0.34853       -0.63038
C         -4.91417       -2.45405        0.30769
H         -5.10075       -3.44587        0.72245
C         -5.98125       -1.59359        0.06230
Cl        -7.59636       -2.10855        0.41263
C         -1.54785        2.64078       -0.80352
H         -1.45655        2.63848       -1.89078
C         -1.78852        1.49440        1.30074
H         -1.89275        0.56137        1.86301
C         -1.50310        3.86411       -0.13675
H         -1.36358        4.79479       -0.68917
C         -1.75716        2.70684        1.97784
H         -1.84003        2.74648        3.06537
C         -1.59970        3.88821        1.25051
Cl        -1.47144        5.39922        2.08957
H          1.53484       -0.97735        3.00756
H          2.33795        0.61875        2.89390
H          0.54233        0.48492        2.77339
C          3.60614       -2.18372        0.42039
H          2.76116       -2.87958        0.40693
C          4.41264        0.08643        0.52830
H          4.22575        1.16107        0.60024
C          4.91327       -2.65245        0.32446
H          5.12302       -3.72022        0.24322
C          5.72379       -0.36778        0.42407
H          6.56142        0.33156        0.41706
C          5.96564       -1.73811        0.32424
Cl         7.59448       -2.30843        0.19103
C          1.77790        1.57152       -1.36476
H          1.81353        0.67664       -1.99221
C          1.61834        2.58414        0.81293
H          1.52798        2.51432        1.89771
C          1.81856        2.82706       -1.95796
H          1.89532        2.93552       -3.04113
C          1.64412        3.85074        0.23181
H          1.55785        4.74735        0.84757
C          1.73794        3.96326       -1.15127
Cl         1.70212        5.53146       -1.88506
