88
Cat093.ts34.5.log	Energy: -1347847.5183290
C          0.92128       -2.11175       -2.82620
H          0.87594       -1.61715       -3.80066
H          1.88436       -2.59838       -2.63322
C         -0.27726       -2.77928       -2.37624
H         -1.19602       -2.68016       -2.96039
H         -0.17443       -3.77566       -1.92898
H         -0.41185       -2.36282       -0.85579
Ir         0.09788       -0.82068       -1.29775
C          2.38562       -2.79851        0.56622
O          3.41856       -0.69191       -0.67417
O          1.99728       -0.19597        1.41207
C         -0.89340        1.11623        1.50133
O         -2.54334        0.96807       -0.75525
O         -2.41167       -0.94835        0.96363
P         -1.45943        0.07689        0.09572
P          1.96531       -1.07901        0.01163
C         -0.01083        0.70821       -2.42011
O         -0.04804        1.66248       -3.07083
H          2.11585       -3.37616       -0.33804
C          3.84486       -3.09630        0.88693
H          3.99079       -4.18364        0.99359
H          4.50854       -2.73312        0.09088
H          4.16293       -2.63217        1.83151
C          1.42843       -3.20262        1.68276
H          0.38628       -2.95439        1.42673
H          1.48716       -4.28575        1.87278
H          1.67066       -2.68315        2.62275
C          3.51006        0.19568       -1.78139
H          4.50457        0.01348       -2.21958
H          2.74771       -0.07976       -2.52811
C          3.34761        1.65212       -1.39976
H          3.30343        2.24100       -2.33268
H          2.35820        1.77564       -0.92776
C          4.43588        2.20097       -0.49036
H          5.40931        2.14156       -1.00884
H          4.52994        1.54968        0.39331
C          4.17195        3.63082       -0.04786
H          4.10605        4.31210       -0.91138
H          3.21725        3.70668        0.49798
H          4.96603        4.00732        0.61485
C          3.13818       -0.09805        2.25234
H          3.14719       -0.94771        2.95937
H          4.05382       -0.15712        1.64284
C          3.09181        1.20849        3.01365
H          4.06232        1.34307        3.52324
H          3.00835        2.03092        2.28309
C          1.96117        1.29785        4.02832
H          2.09206        0.50489        4.78596
H         -0.13515        0.44373        1.93808
C          1.87367        2.65349        4.70894
H          2.80540        2.89695        5.24482
H          1.70058        3.45649        3.97404
H          1.05091        2.68925        5.43915
H          1.00936        1.07474        3.52159
C         -0.15626        2.33714        0.96541
H          0.30733        2.89368        1.79487
H          0.64127        2.03757        0.27164
H         -0.83378        3.02229        0.43324
C         -1.92364        1.45909        2.56940
H         -2.47514        0.56800        2.89877
H         -1.41270        1.88904        3.44651
H         -2.64738        2.21087        2.22170
C         -3.78032        1.47438       -0.27934
H         -4.56662        1.05451       -0.93118
H         -3.98459        1.11867        0.74264
C         -3.80782        2.98718       -0.35298
H         -4.80503        3.32693       -0.02014
H         -3.08678        3.40050        0.37379
C         -3.49999        3.53361       -1.74016
H         -4.24842        3.14649       -2.45428
H         -2.53122        3.12758       -2.07328
C         -3.47487        5.05208       -1.78928
H         -4.44184        5.48443       -1.48378
H         -2.70543        5.45932       -1.11323
H         -3.25101        5.41938       -2.80210
C         -3.04225       -2.05038        0.33628
H         -3.55983       -1.71482       -0.58152
H         -2.27792       -2.78549        0.02894
C         -4.02313       -2.66922        1.30626
H         -4.44576       -3.57206        0.83150
H         -3.46797       -3.01589        2.19541
C         -5.14460       -1.73275        1.73371
H         -5.67607       -1.37235        0.83465
H         -4.69887       -0.83881        2.20005
C         -6.13088       -2.37794        2.69298
H         -6.61471       -3.25867        2.24043
H         -5.62787       -2.71706        3.61288
H         -6.92652       -1.67769        2.98910
