112
Cat086.ts34.5.log	Energy: -1640022.9155993
C          1.48763       -4.26313       -0.35159
H          1.29380       -4.94661       -1.18307
H          2.54716       -4.20086       -0.08125
C          0.52153       -4.25987        0.72590
H         -0.39285       -4.85290        0.62430
H          0.90612       -4.27823        1.75364
H          0.28943       -2.77121        1.05022
Ir         0.38273       -2.44029       -0.61447
C          2.09211        0.31148        1.03100
C          3.82357       -1.73112       -0.05341
C          2.47071        0.13650       -1.85779
C         -1.70201        0.14647       -1.71804
C         -3.07410       -2.14680       -0.42771
C         -1.59139       -0.14173        1.21394
P         -1.50974       -1.10871       -0.38628
P          2.15086       -0.93066       -0.33460
C          0.00929       -2.69516       -2.44036
O         -0.20928       -2.77853       -3.57658
H          2.98801        0.95063        1.01168
H          1.25187        0.97832        0.77819
C          1.88465       -0.29560        2.40870
H          1.07857       -1.04919        2.36075
H          2.78404       -0.85870        2.71533
C          1.55494        0.74626        3.46874
H          0.66444        1.31836        3.14915
H          2.37468        1.48548        3.52634
C          1.30243        0.15401        4.84754
H          0.48682       -0.58733        4.77475
H          2.19351       -0.41487        5.16812
C          0.95313        1.19703        5.89655
H          0.77293        0.74052        6.88164
H          0.04494        1.75416        5.61564
H          1.76517        1.93267        6.01422
H          3.72151       -2.27431        0.89955
H          3.90699       -2.49317       -0.84258
C          5.01125       -0.82548       -0.04764
C          5.77899       -0.64323       -1.20586
H          5.54996       -1.22574       -2.10233
C          5.36282       -0.09682        1.09792
H          4.79833       -0.25366        2.02094
C          6.83588        0.26445       -1.22005
H          7.42563        0.39561       -2.13047
C          6.41143        0.82623        1.09971
C          6.72238        1.63363        2.32646
H          6.28339        2.64258        2.25021
H          6.31369        1.16484        3.23285
H          7.80643        1.76076        2.46356
C          7.14489        1.00318       -0.08105
H          7.97370        1.71621       -0.10111
H          3.44203       -0.18340       -2.26300
H          1.70075       -0.15884       -2.58214
C          2.46148        1.62175       -1.65307
C          1.33979        2.38304       -1.99848
H          0.49127        1.90082       -2.48769
C          3.56035        2.28173       -1.08634
H          4.45522        1.70732       -0.83666
C          1.30729        3.75436       -1.74719
H          0.42372        4.33413       -2.02760
C          3.54445        3.65296       -0.82331
C          4.72528        4.31654       -0.17463
H          5.63068        3.70090       -0.27392
H          4.92708        5.30513       -0.61359
H          4.54554        4.47136        0.90281
C          2.39629        4.38548       -1.15393
H          2.36481        5.46088       -0.95757
H         -0.91786        0.87978       -1.47494
H         -1.36039       -0.35477       -2.63805
C         -3.02898        0.85592       -1.94515
H         -3.72480        0.17578       -2.46471
H         -3.50105        1.10897       -0.98509
C         -2.87455        2.13311       -2.75910
H         -2.45224        1.89939       -3.75378
H         -2.13601        2.78324       -2.25689
C         -4.17879        2.90110       -2.91726
H         -4.92327        2.25817       -3.42039
H         -4.58677        3.10802       -1.91171
C         -4.02276        4.20421       -3.68350
H         -4.97995        4.73896       -3.78019
H         -3.63584        4.02806       -4.70015
H         -3.31471        4.87904       -3.17555
H         -3.30968       -2.25204       -1.49852
H         -2.72457       -3.13352       -0.09374
C         -4.27133       -1.72930        0.37079
C         -4.37637       -2.10762        1.71767
H         -3.59620       -2.73004        2.16487
C         -5.30604       -0.96984       -0.18239
H         -5.25216       -0.68626       -1.23525
C         -5.46802       -1.70726        2.48273
H         -5.53619       -2.00678        3.53136
C         -6.40878       -0.55320        0.57012
C         -7.49294        0.26515       -0.06891
H         -8.13787        0.74013        0.68368
H         -7.07018        1.05634       -0.70675
H         -8.13510       -0.36072       -0.71023
C         -6.47523       -0.92698        1.91651
H         -7.32761       -0.61073        2.52399
H         -2.09894       -0.79229        1.94107
H         -0.54310       -0.07751        1.52658
C         -2.20458        1.22648        1.18742
C         -1.46065        2.32258        0.73376
H         -0.41657        2.19664        0.43632
C         -3.53008        1.43929        1.58671
H         -4.11484        0.59591        1.95965
C         -2.04631        3.58326        0.64146
H         -1.45295        4.42654        0.27908
C         -4.13298        2.69659        1.49902
C         -5.56510        2.89323        1.90516
H         -5.97470        1.98714        2.37186
H         -5.67007        3.72731        2.61630
H         -6.19397        3.13237        1.03196
C         -3.37564        3.76910        1.00886
H         -3.83043        4.76058        0.92914
