76
Cat013.ts34.5.log	Energy: -1344223.5465773
C         -0.70236       -3.17037       -1.38066
H         -0.77587       -4.08366       -0.78304
H         -1.58629       -2.98855       -2.00294
C          0.59255       -2.85337       -1.93460
H          1.46045       -3.46144       -1.66336
H          0.63571       -2.52238       -2.97938
H          0.77973       -1.30681       -1.67538
Ir         0.03802       -1.54243       -0.17914
C         -1.79687        0.36215       -2.58628
C         -3.37601       -0.60993       -0.43329
C         -1.67101        1.58154        0.01173
C          1.57240        0.21640        2.48759
C          3.36221       -0.64489        0.46013
C          1.67147        1.58464       -0.04558
P          1.62157       -0.09529        0.68416
P         -1.65738       -0.05898       -0.80305
C         -0.18986       -2.40789        1.48214
O         -0.32611       -2.90408        2.52082
H         -0.87146        0.86271       -2.90588
H         -1.88411       -0.58512       -3.13811
H         -2.66584        0.99382       -2.82368
C         -4.46912        0.23550       -0.67224
H         -4.30462        1.24309       -1.06511
C         -3.61562       -1.87248        0.10830
H         -2.76463       -2.52560        0.31520
C         -5.76291       -0.18275       -0.38977
H         -6.60149        0.49405       -0.57868
C         -4.91712       -2.28812        0.39033
H         -5.08233       -3.28148        0.81681
C         -6.01165       -1.45612        0.14464
C         -7.41454       -1.89781        0.44250
H         -8.01825       -1.94975       -0.47799
H         -7.43359       -2.89043        0.91348
H         -7.92010       -1.19100        1.11931
C         -1.59565        2.79790       -0.66915
H         -1.53532        2.82110       -1.75852
C         -1.73943        1.60402        1.41192
H         -1.80010        0.65631        1.95601
C         -1.58102        4.00257        0.03303
H         -1.51211        4.94319       -0.52108
C         -1.73240        2.80764        2.10476
H         -1.79465        2.80053        3.19704
C         -1.64392        4.03256        1.42755
C         -1.57468        5.32802        2.18097
H         -2.20023        5.30517        3.08560
H         -0.54143        5.53829        2.50695
H         -1.90005        6.17510        1.56007
H          1.61330       -0.75961        2.99025
H          2.42190        0.82928        2.82116
H          0.62286        0.70491        2.74799
C          3.63436       -2.01341        0.38277
H          2.79397       -2.71442        0.41013
C          4.43077        0.25818        0.41345
H          4.23980        1.33350        0.46431
C          4.94542       -2.46832        0.26898
H          5.13894       -3.54356        0.21590
C          5.73790       -0.20321        0.29134
H          6.56047        0.51689        0.25287
C          6.01978       -1.57325        0.21577
C          7.42874       -2.06231        0.04941
H          8.14749       -1.40356        0.55848
H          7.55236       -3.07969        0.44760
H          7.71123       -2.09092       -1.01647
C          1.66604        2.75595        0.71437
H          1.61836        2.71028        1.80331
C          1.72205        1.69722       -1.44094
H          1.72048        0.78859       -2.04948
C          1.70442        4.00373        0.09419
H          1.68746        4.90721        0.71034
C          1.76842        2.94329       -2.05344
H          1.81334        3.00555       -3.14467
C          1.75241        4.12272       -1.29644
C          1.73844        5.46758       -1.96060
H          2.29983        5.45902       -2.90630
H          0.70554        5.77509       -2.19806
H          2.16850        6.24410       -1.31177
