84
Cat003.ts34.5.log	Energy: -1159108.1200146
C         -0.73326       -2.99799       -1.01435
H         -0.95479       -3.79583       -0.29961
H         -1.51616       -2.86838       -1.77019
C          0.64183       -2.87388       -1.44443
H          1.40488       -3.50048       -0.97315
H          0.83336       -2.73444       -2.51547
H          0.94306       -1.33742       -1.40433
Ir         0.00382       -1.25422        0.00465
C         -1.01629        1.12187       -2.55786
C         -3.10953       -0.45422       -1.48327
C         -1.95918        1.66102        0.10694
C          1.11202        1.01102        2.48324
C          3.18579       -0.57206        1.35576
C          2.05299        1.60291       -0.18033
P          1.56784        0.19225        0.90753
P         -1.47548        0.25661       -0.99831
C         -0.50103       -1.83079        1.72559
O         -0.81992       -2.14446        2.79620
H         -0.09994        1.70634       -2.39105
H         -0.79025        0.35746       -3.31583
H         -1.80784        1.78391       -2.94269
H         -3.72495        0.32473       -1.96558
H         -2.89301       -1.20581       -2.26158
C         -3.84920       -1.10310       -0.32414
H         -3.16110       -1.79484        0.19080
H         -4.11571       -0.33495        0.42404
C         -5.10824       -1.84520       -0.74865
H         -4.83916       -2.62025       -1.48964
H         -5.78987       -1.15202       -1.27563
C         -5.84712       -2.49492        0.41299
H         -5.15849       -3.17980        0.93818
H         -6.11250       -1.71794        1.15186
C         -7.09798       -3.24791       -0.00992
H         -7.60877       -3.70524        0.85106
H         -6.85680       -4.05528       -0.72018
H         -7.81892       -2.57896       -0.50746
H         -2.21129        1.19367        1.07337
H         -1.02888        2.22651        0.28941
C         -3.06623        2.60131       -0.34454
H         -2.82394        3.02978       -1.33266
H         -4.00373        2.03557       -0.48181
C         -3.31421        3.73590        0.64142
H         -2.38029        4.31178        0.77781
H         -3.54804        3.30987        1.63412
C         -4.43209        4.67967        0.22061
H         -4.19615        5.09893       -0.77374
H         -5.36208        4.09938        0.08538
C         -4.67309        5.80949        1.20862
H         -5.48616        6.47332        0.87788
H         -3.77001        6.42802        1.33633
H         -4.94582        5.41927        2.20239
H          0.85289        0.23199        3.21464
H          1.92504        1.63164        2.88842
H          0.21884        1.63129        2.32333
H          3.82667        0.17764        1.85198
H          2.94077       -1.33957        2.10892
C          3.89979       -1.20825        0.17429
H          3.19760       -1.89150       -0.33267
H          4.15876       -0.43304       -0.56964
C          5.16092       -1.96579        0.56433
H          4.90114       -2.74425        1.30448
H          5.85945       -1.28271        1.08181
C          5.86865       -2.61072       -0.61924
H          5.16380       -3.28776       -1.13362
H          6.12263       -1.82963       -1.35801
C          7.12363       -3.37560       -0.23128
H          7.61123       -3.82963       -1.10729
H          6.89324       -4.18646        0.47839
H          7.86025       -2.71517        0.25426
H          2.28288        1.15305       -1.16066
H          1.12802        2.18440       -0.33491
C          3.18265        2.51275        0.27713
H          2.96107        2.91996        1.27894
H          4.11247        1.92858        0.38710
C          3.43422        3.66762       -0.68385
H          2.50710        4.25979       -0.79300
H          3.64871        3.26329       -1.68996
C          4.57131        4.58424       -0.25456
H          4.35435        4.98157        0.75295
H          5.49453        3.98769       -0.14637
C          4.81533        5.73512       -1.21712
H          5.64202        6.37878       -0.88055
H          3.91964        6.36925       -1.31685
H          5.06955        5.36660       -2.22400
