86
Cat049.ts34.5.log	Energy: -1582269.4425454
C         -0.32736       -1.28092       -3.29754
H         -0.24575       -2.36264       -3.43520
H         -1.28329       -0.87018       -3.63583
C          0.86943       -0.50274       -3.51155
H          1.81907       -1.01565       -3.68631
H          0.78826        0.42661       -4.08855
H          0.87884        0.52592       -2.31383
Ir         0.35306       -0.72604       -1.32254
C         -1.87357        2.11223       -1.44087
O         -3.05314       -0.06243       -0.90795
O         -1.41645        0.79419        0.92941
C          1.50818       -0.72270        1.98402
O          3.35507       -0.64797       -0.09946
O          2.14487        1.46294        0.64161
P          1.83082       -0.13201        0.28958
P         -1.48699        0.48325       -0.71453
C          0.48606       -2.52248       -0.71155
O          0.54988       -3.60459       -0.31049
H         -1.04131        2.77312       -1.16077
C         -2.02525        2.04375       -2.95177
H         -2.85639        1.38414       -3.24200
H         -1.10618        1.66749       -3.42561
H         -2.79334        2.48753       -0.96647
H         -2.22375        3.04382       -3.36517
C         -3.62681       -1.24267       -0.51831
C         -3.00276       -2.47533       -0.69010
H         -2.01826       -2.50771       -1.15281
C         -4.91768       -1.14544        0.03006
C         -5.59473        0.18550        0.13547
H         -5.01588        0.88280        0.75892
H         -5.69271        0.65476       -0.85611
H         -6.59725        0.08211        0.57220
C         -3.63823       -3.63772       -0.25799
H         -3.13602       -4.59996       -0.38137
C         -5.53240       -2.32806        0.44849
H         -6.53426       -2.27013        0.88306
C         -4.90162       -3.56627        0.32267
H         -5.40494       -4.47329        0.66497
C         -2.45364        1.12296        1.76146
C         -2.92191        2.43796        1.81411
H         -2.46108        3.18709        1.16917
C         -2.97843        0.12673        2.60097
C         -2.45182       -1.27734        2.58846
H         -1.70640       -1.42568        1.79825
H         -1.98145       -1.52233        3.55443
H         -3.26475       -1.99977        2.42018
C         -3.94942        2.77688        2.68971
H         -4.31595        3.80531        2.72571
C         -4.01172        0.49743        3.46962
H         -4.44144       -0.26634        4.12376
C         -4.50170        1.79974        3.51673
H         -5.31186        2.05372        4.20386
H          1.51055       -1.82358        1.92235
C          2.34428       -0.20531        3.14439
H          2.41121        0.89151        3.12085
H          3.36637       -0.60585        3.13725
H          0.45099       -0.43146        2.10442
H          1.87399       -0.49660        4.09604
C          4.45250       -0.67461        0.72619
C          5.08203        0.50440        1.11977
H          4.67046        1.45867        0.79091
C          4.93518       -1.93500        1.11026
C          4.24749       -3.17974        0.63940
H          4.81473       -4.07569        0.92531
H          3.23376       -3.27324        1.06006
H          4.12276       -3.17228       -0.45384
C          6.20233        0.44043        1.94483
H          6.69294        1.36292        2.26375
C          6.06389       -1.96786        1.93428
H          6.45660       -2.93888        2.24827
C          6.69182       -0.79700        2.35775
H          7.57009       -0.85344        3.00467
C          1.59583        2.57586        0.07090
C          0.68300        3.30587        0.83352
H          0.39831        2.91776        1.81251
C          2.00906        3.01669       -1.19645
C          3.08232        2.31061       -1.97097
H          4.07145        2.72651       -1.71400
H          3.12385        1.23474       -1.76219
H          2.94082        2.44800       -3.05230
C          0.15519        4.49472        0.34096
H         -0.55148        5.06795        0.94566
C          1.43639        4.20076       -1.67939
H          1.73533        4.55785       -2.66885
C          0.52444        4.93877       -0.92866
H          0.10656        5.86311       -1.33341
