80
Cat027.ts34.5.log	Energy: -1532974.3815593
C         -0.81311       -3.17622       -0.82494
H         -1.12323       -3.89723       -0.06422
H         -1.56401       -3.01350       -1.60378
C          0.57922       -3.15556       -1.19522
H          1.30466       -3.75771       -0.64114
H          0.83239       -3.07641       -2.25902
H          0.94403       -1.61949       -1.25902
Ir        -0.00796       -1.40485        0.11278
C         -0.87469        1.08007       -2.36837
O         -2.86526       -0.25592       -1.37176
O         -1.60507        1.40630        0.21819
C          1.32102        0.90286        2.46144
O          3.08299       -0.53151        1.14879
O          1.78615        1.28153       -0.18777
P          1.53420        0.03687        0.89196
P         -1.32620        0.16380       -0.87059
C         -0.60841       -1.90856        1.84779
O         -1.01594       -2.17236        2.89598
H          0.13107        1.48892       -2.19832
H         -0.83168        0.35796       -3.19547
H         -1.58510        1.88267       -2.61073
C         -3.66324       -1.11377       -0.66182
C         -3.74486       -1.05901        0.72731
H         -3.15840       -0.31544        1.27040
C         -4.41522       -2.04095       -1.38455
H         -4.33306       -2.05745       -2.47282
C         -4.56276       -1.95611        1.42534
C         -4.60774       -1.90779        2.92463
H         -4.93475       -0.91785        3.28030
H         -5.29699       -2.66018        3.33235
H         -3.60725       -2.09000        3.34714
C         -5.24151       -2.92135       -0.69534
H         -5.83424       -3.65210       -1.25102
C         -5.31015       -2.88683        0.69807
H         -5.95450       -3.59198        1.22911
C         -2.20931        2.61176       -0.01011
C         -3.38968        2.73574       -0.74300
H         -3.84587        1.84375       -1.17494
C         -1.61574        3.73633        0.57005
H         -0.69710        3.61383        1.14595
C         -3.98544        3.99133       -0.91953
C         -5.25716        4.10728       -1.70936
H         -5.12324        3.73390       -2.73691
H         -6.06185        3.50941       -1.25299
H         -5.60147        5.14897       -1.76933
C         -2.20887        4.98191        0.39958
H         -1.74849        5.86382        0.85177
C         -3.38247        5.11287       -0.34303
H         -3.83965        6.09706       -0.47205
H          0.37481        1.45875        2.39746
H          1.23966        0.14865        3.25612
H          2.15507        1.58487        2.67449
C          3.58982       -1.52125        0.34497
C          3.79741       -1.29106       -1.01242
H          3.54931       -0.31135       -1.42766
C          3.87898       -2.76026        0.91385
H          3.69013       -2.91315        1.97733
C          4.29666       -2.30769       -1.83545
C          4.49860       -2.05527       -3.30149
H          3.55113       -1.77547       -3.78924
H          5.20349       -1.22584       -3.46970
H          4.89296       -2.94385       -3.81346
C          4.38622       -3.76943        0.10190
H          4.61702       -4.74605        0.53411
C          4.58950       -3.54841       -1.26084
H          4.98034       -4.35268       -1.88929
C          2.49270        2.43766        0.02109
C          3.77431        2.44108        0.57073
H          4.22746        1.49596        0.87472
C          1.89148        3.62947       -0.38983
H          0.88817        3.60058       -0.81741
C          4.47135        3.64593        0.73075
C          5.84640        3.63763        1.33370
H          5.81832        3.29361        2.38007
H          6.51568        2.95388        0.78880
H          6.29856        4.63890        1.32064
C          2.58557        4.82439       -0.23737
H          2.12099        5.76036       -0.55703
C          3.86388        4.83634        0.32079
H          4.39921        5.78198        0.43694
