100
Cat064.ts34.5.log	Energy: -1446449.9543213
C          1.60749       -0.80199       -3.44179
H          0.87036       -0.81622       -4.24917
H          2.37433       -0.03092       -3.56893
C          2.00902       -2.07772       -2.89780
H          1.49169       -2.98401       -3.22313
H          3.07698       -2.25084       -2.71831
H          2.01985       -1.85455       -1.32645
Ir         0.61833       -0.93708       -1.52263
C          0.71982        2.56310       -1.52897
O          1.32201        1.34864        0.83342
O          3.02037        1.51673       -1.10501
C         -1.25965       -0.90433        1.49666
O         -1.33308       -3.09528       -0.10064
O          0.65411       -2.75461        1.37675
P         -0.28730       -1.91391        0.32367
P          1.45597        1.05334       -0.79693
C         -1.11633       -0.84123       -2.28825
O         -2.17463       -0.76122       -2.74542
H          1.27990        3.43499       -1.14996
H          0.94417        2.49378       -2.60628
C         -0.77473        2.70495       -1.29523
H         -1.29712        1.85874       -1.76983
H         -0.98947        2.62019       -0.21679
C         -1.34887        4.01540       -1.81265
H         -1.16194        4.09536       -2.89886
H         -0.80700        4.86351       -1.35389
C         -2.83890        4.16394       -1.53918
H         -3.37319        3.30113       -1.97418
H         -3.01031        4.09977       -0.44952
C         -3.42964        5.45859       -2.07247
H         -4.50521        5.53594       -1.85257
H         -3.30769        5.53237       -3.16509
H         -2.93484        6.33708       -1.62746
C          1.85994        2.49595        1.47769
H          2.33255        2.12902        2.40562
H          2.65968        2.93670        0.86004
C          0.80096        3.52761        1.81865
H          1.29520        4.34308        2.37584
H          0.41559        3.98677        0.89329
C         -0.35825        2.96742        2.62844
H          0.02140        2.58520        3.59291
H         -0.76017        2.08993        2.09759
C         -1.46896        3.97584        2.86749
H         -1.10159        4.86427        3.40571
H         -1.89930        4.32362        1.91394
H         -2.28894        3.54312        3.46073
C          4.07740        0.61374       -1.36078
H          3.69569       -0.42318       -1.33743
H          4.44688        0.81457       -2.38047
C          5.19549        0.78647       -0.35313
H          6.09528        0.27479       -0.73770
H          5.45003        1.85945       -0.29903
C          4.84627        0.25553        1.02800
H          4.71278       -0.83842        0.96200
H          3.86357        0.65300        1.32404
C          5.87734        0.58470        2.09325
H          6.86860        0.17723        1.83663
H          5.99174        1.67416        2.21317
H          5.59253        0.17175        3.07342
H         -1.62783       -1.57498        2.29144
H         -0.54085       -0.21203        1.96389
C         -2.39507       -0.13719        0.83569
H         -1.96550        0.62989        0.17345
H         -2.96874       -0.80666        0.17327
C         -3.34431        0.51478        1.82981
H         -2.77017        1.15131        2.52624
H         -3.81251       -0.26493        2.45908
C         -4.42906        1.34620        1.16069
H         -3.95222        2.10493        0.51625
H         -5.00739        0.70002        0.47665
C         -5.36636        2.02552        2.14508
H         -6.14005        2.61504        1.63019
H         -4.81607        2.70993        2.81116
H         -5.87971        1.28850        2.78369
C         -1.98986       -3.95430        0.82287
H         -1.91295       -4.96861        0.39802
H         -1.45425       -3.96678        1.78624
C         -3.44774       -3.57693        1.00567
H         -3.91112       -4.33095        1.66673
H         -3.51741       -2.61932        1.54906
C         -4.22489       -3.47465       -0.29940
H         -4.23636       -4.46221       -0.79349
H         -3.68096       -2.80570       -0.98609
C         -5.64601       -2.97329       -0.10448
H         -6.22086       -3.63169        0.56713
H         -5.65244       -1.96463        0.34109
H         -6.18925       -2.91492       -1.05960
C          2.01090       -2.47697        1.66227
H          2.44128       -3.42858        2.01421
H          2.53332       -2.18783        0.73252
C          2.16775       -1.39096        2.70829
H          3.24627       -1.25780        2.89957
H          1.81659       -0.43906        2.27424
C          1.44559       -1.66930        4.01813
H          1.86670       -2.57731        4.48525
H          0.39117       -1.90644        3.80298
C          1.52297       -0.50152        4.98794
H          2.56807       -0.24841        5.23050
H          1.06023        0.40092        4.55556
H          1.00538       -0.71929        5.93446
