76
Cat015.ts34.5.log	Energy: -1344223.9409670
C         -1.18485       -2.89087       -1.46854
H         -1.43404       -3.78125       -0.88379
H         -2.00074       -2.55892       -2.12095
C          0.16538       -2.79566       -1.97086
H          0.90756       -3.54174       -1.67219
H          0.30419       -2.47482       -3.01046
H          0.59147       -1.30234       -1.69365
Ir        -0.22788       -1.41668       -0.22369
C         -1.59878        0.87911       -2.62224
C         -3.42696        0.07390       -0.59527
C         -1.41140        1.91960        0.05581
C          1.51830        0.01409        2.51563
C          3.18479       -1.08001        0.49622
C          1.88089        1.40305        0.01384
P          1.54864       -0.26276        0.70625
P         -1.62207        0.34743       -0.86401
C         -0.67017       -2.22888        1.42047
O         -0.94135       -2.68835        2.44982
H         -0.58985        1.23959       -2.86926
H         -1.80600       -0.01164       -3.23297
H         -2.34153        1.65483       -2.86023
C         -4.35470        1.08818       -0.87201
H         -4.01549        2.05986       -1.24140
C         -3.87779       -1.14038       -0.08170
H         -3.13837       -1.91249        0.14746
C         -5.70817        0.86833       -0.64592
H         -6.43170        1.66032       -0.85523
C         -5.23959       -1.37732        0.15248
C         -5.69070       -2.70147        0.69719
H         -5.55194       -3.50262       -0.04700
H         -5.10600       -2.98492        1.58578
H         -6.75355       -2.68430        0.97668
C         -6.14697       -0.35678       -0.13937
H         -7.21375       -0.51795        0.04020
C         -1.14960        3.15164       -0.54353
H         -1.05844        3.23833       -1.62744
C         -1.50333        1.84559        1.45306
H         -1.70076        0.87219        1.91467
C         -0.98497        4.28731        0.25165
H         -0.76932        5.24904       -0.22033
C         -1.34440        2.97194        2.25875
C         -1.43498        2.87416        3.75435
H         -0.47964        3.14961        4.23029
H         -2.20152        3.55636        4.15440
H         -1.69022        1.85472        4.07576
C         -1.08268        4.20163        1.63486
H         -0.94916        5.09859        2.24647
H          1.39329       -0.96617        2.99560
H          2.44916        0.47539        2.87484
H          0.65508        0.64363        2.77356
C          3.23033       -2.47306        0.41148
H          2.28907       -3.03120        0.42207
C          4.37780       -0.34794        0.46602
H          4.34356        0.74405        0.52203
C          4.46092       -3.11995        0.30763
H          4.49838       -4.21047        0.24569
C          5.61712       -0.98320        0.35093
C          6.89143       -0.19081        0.29392
H          7.36441       -0.27101       -0.69840
H          6.71110        0.87506        0.49188
H          7.62386       -0.55538        1.03089
C          5.64074       -2.38249        0.27524
H          6.60105       -2.89874        0.18530
C          2.06220        2.54107        0.80053
H          1.99449        2.48585        1.88772
C          1.95535        1.52035       -1.38005
H          1.80098        0.62669       -1.99245
C          2.31856        3.77083        0.19271
H          2.45091        4.66107        0.81218
C          2.20920        2.74271       -2.00183
C          2.24853        2.85516       -3.49845
H          2.32722        1.86759       -3.97429
H          1.33358        3.33732       -3.88201
H          3.09960        3.46601       -3.83566
C          2.39489        3.87173       -1.19107
H          2.59365        4.84184       -1.65551
