72
Cat060.ts34.5.log	Energy: -1060505.2784190
C         -1.97274       -2.10521       -1.67011
H         -1.59219       -3.01096       -2.15111
H         -2.84880       -2.28902       -1.03846
C         -1.95907       -0.89506       -2.46074
H         -1.48871       -0.91173       -3.44828
H         -2.85818       -0.26604       -2.44748
H         -1.42350        0.21612       -1.50003
Ir        -0.36115       -0.93506       -0.85817
C         -2.29658        0.68798        1.79805
C         -2.35086       -2.16189        1.80316
C          0.02938       -0.76413        2.64205
C          2.80660        0.19698        0.10088
C          1.91390        1.27117       -2.41416
C          0.72177        2.28509        0.04199
P          1.26781        0.71241       -0.77736
P         -1.25172       -0.76079        1.30146
C          0.93917       -2.28568       -1.05061
O          1.75425       -3.10630       -1.14047
H         -2.70548        0.52775        2.81080
H         -1.61598        1.55443        1.86093
C         -3.41501        0.98434        0.81114
H         -2.97717        1.07229       -0.19841
H         -4.10902        0.12643        0.76165
C         -4.20071        2.24581        1.13958
H         -3.50511        3.10406        1.18749
H         -4.63630        2.15934        2.15187
C         -5.30626        2.54841        0.13768
H         -4.86505        2.62786       -0.87181
H         -5.99718        1.68791        0.09220
C         -6.08517        3.81392        0.45765
H         -6.87580        4.00421       -0.28391
H         -5.42494        4.69617        0.47340
H         -6.56628        3.74760        1.44687
H         -3.22206       -2.12024        1.12950
C         -1.67521       -3.51921        1.70551
H         -0.84340       -3.61157        2.42151
H         -1.26036       -3.67280        0.69809
H         -2.73467       -1.97305        2.81995
H         -2.38555       -4.33292        1.91780
H          0.62648        0.14738        2.47157
C         -0.43549       -0.83732        4.08771
H         -0.98560       -1.76790        4.29368
H         -1.09211        0.00443        4.35499
H          0.69987       -1.60332        2.39615
H          0.42452       -0.81065        4.77535
H          2.46691       -0.21849        1.06341
H          3.16459       -0.67489       -0.47368
C          3.93877        1.18961        0.32020
H          4.22079        1.66993       -0.63258
H          3.60124        2.00304        0.98456
C          5.17302        0.53771        0.93080
H          5.52119       -0.27403        0.26676
H          4.89239        0.04458        1.87935
C          6.31543        1.51126        1.18450
H          6.58806        2.00378        0.23410
H          5.96087        2.32052        1.84763
C          7.54490        0.85464        1.79120
H          8.35243        1.58241        1.96259
H          7.94206        0.06576        1.13240
H          7.30956        0.38439        2.75956
H          2.44249        0.39416       -2.82248
C          0.82154        1.71903       -3.37051
H          0.26827        2.59014       -2.98485
H          0.09443        0.90892       -3.52477
H          2.66587        2.06417       -2.26808
H          1.24208        1.99988       -4.34814
H          0.74278        2.06995        1.12414
C          1.45217        3.58285       -0.27094
H          1.36327        3.85088       -1.33398
H          2.52294        3.53523       -0.03117
H         -0.34494        2.37406       -0.21713
H          1.02098        4.41373        0.30934
