100
Cat072.ts34.5.log	Energy: -1541401.9433224
C          1.52315       -2.23019       -2.12523
H          1.15658       -2.34263       -3.14982
H          2.61295       -2.14073       -2.06036
C          0.84234       -2.99228       -1.10594
H         -0.04480       -3.57784       -1.36738
H          1.46179       -3.50746       -0.35909
H          0.58370       -2.02270        0.05256
Ir         0.29260       -0.79854       -1.08129
C          2.97836       -0.34117        1.25497
C          3.17475        1.30323       -1.08145
C          1.19521        2.05481        0.79880
C         -2.76765        0.90053       -0.73503
C         -2.89896       -1.89971       -0.16259
C         -1.57569       -0.27537        1.84621
P         -1.74805       -0.44753        0.01538
P          1.89596        0.52801        0.02550
C         -0.27389        0.10133       -2.62836
O         -0.60564        0.69443       -3.56776
H          3.62629        0.35450        1.80668
H          2.30237       -0.81545        1.98187
C          3.83104       -1.40407        0.57684
H          3.18100       -2.09005        0.01158
H          4.49150       -0.93047       -0.16920
C          4.66928       -2.20553        1.56253
H          4.00557       -2.67371        2.31270
H          5.32540       -1.52084        2.13057
C          5.51650       -3.28080        0.89650
H          4.85567       -3.95853        0.32716
H          6.17319       -2.80761        0.14534
C          6.35431       -4.08558        1.87667
H          6.95388       -4.85366        1.36503
H          5.72004       -4.59814        2.61798
H          7.05003       -3.43729        2.43359
C          3.21409        0.83390       -2.39962
H          2.47511        0.08775       -2.69700
C          4.10484        2.29237       -0.67738
C          4.12292        2.93875        0.67899
H          3.96075        2.22819        1.49778
H          3.32872        3.69758        0.76176
H          5.08605        3.43937        0.85118
C          4.15253        1.29588       -3.31865
H          4.15334        0.90678       -4.33941
C          5.04243        2.73972       -1.61714
H          5.76483        3.50100       -1.30918
C          5.07787        2.25394       -2.92129
H          5.82591        2.63072       -3.62331
C          0.70445        2.95133       -0.16657
H          0.72856        2.65437       -1.21919
C          1.11760        2.40932        2.16158
C          1.55089        1.51761        3.28845
H          2.64682        1.44297        3.35761
H          1.15032        0.50143        3.18243
H          1.18886        1.91441        4.24596
C          0.21221        4.20426        0.17850
H         -0.14456        4.88303       -0.59959
C          0.61769        3.67948        2.48698
H          0.56837        3.96013        3.54288
C          0.18430        4.58019        1.52092
H         -0.19205        5.56240        1.81621
H         -2.26877        1.85336       -0.50380
H         -2.58936        0.74012       -1.81010
C         -4.26900        0.95864       -0.50368
H         -4.71968       -0.00110       -0.80600
H         -4.50684        1.07421        0.56550
C         -4.92340        2.09477       -1.27816
H         -4.68214        1.99065       -2.35146
H         -4.47716        3.05668       -0.96516
C         -6.43406        2.15578       -1.10080
H         -6.87223        1.19122       -1.41249
H         -6.66843        2.25497       -0.02576
C         -7.08760        3.28993       -1.87355
H         -8.17809        3.30791       -1.72601
H         -6.89962        3.19570       -2.95517
H         -6.69271        4.26881       -1.55688
C         -2.71515       -2.62627       -1.34811
H         -1.89928       -2.31286       -2.00825
C         -3.95039       -2.26818        0.71154
C         -4.29555       -1.56466        1.99463
H         -4.22072       -0.47483        1.91279
H         -3.62388       -1.86179        2.81456
H         -5.32331       -1.81343        2.29417
C         -3.52264       -3.70769       -1.68470
H         -3.35342       -4.24606       -2.62016
C         -4.73739       -3.37484        0.36023
H         -5.54634       -3.66926        1.03475
C         -4.53656       -4.09303       -0.81388
H         -5.17825       -4.94605       -1.04811
C         -1.05628       -1.43902        2.43768
H         -0.81809       -2.29331        1.79760
C         -1.85423        0.83928        2.66356
C         -2.35741        2.15592        2.15138
H         -3.37691        2.07990        1.74737
H         -1.71043        2.55768        1.36137
H         -2.37817        2.89598        2.96160
C         -0.86085       -1.54478        3.80903
H         -0.47001       -2.47127        4.23590
C         -1.65175        0.70980        4.04646
H         -1.87460        1.57082        4.68254
C         -1.17467       -0.45972        4.62553
H         -1.03369       -0.51791        5.70731
