88
Cat069.ts34.5.log	Energy: -1691790.8166979
C          1.81431       -1.23525       -2.90146
H          1.71523       -0.82285       -3.90989
H          2.85017       -1.28545       -2.54850
C          0.92802       -2.32045       -2.55083
H          0.12974       -2.61001       -3.24065
H          1.36112       -3.18860       -2.03802
H          0.46689       -1.98054       -1.09355
Ir         0.36912       -0.36637       -1.56934
C          2.14282       -0.76835        1.57499
C          3.50601        0.84668       -0.40233
C          1.22328        1.87232        0.93022
C         -2.23293        1.43790       -0.01288
C         -3.03925       -1.13407       -1.07203
C         -1.46158       -1.04165        1.30082
P         -1.59992       -0.25509       -0.34935
P          1.82243        0.32679        0.12941
C         -0.12914        1.05470       -2.70531
O         -0.43289        1.96630       -3.35455
H          2.80183       -0.27516        2.30941
H          1.16439       -0.89771        2.06365
C          2.68647       -2.13034        1.17508
H          1.98955       -2.58189        0.44825
H          3.64728       -2.01631        0.64268
C          2.86267       -3.06596        2.36259
H          1.91556       -3.11232        2.92968
H          3.60705       -2.64179        3.06094
C          3.28192       -4.47481        1.96864
H          2.53084       -4.89015        1.27291
H          4.22386       -4.42732        1.39407
C          3.45001       -5.40769        3.15686
H          3.74426       -6.42029        2.84207
H          2.51304       -5.49558        3.73049
H          4.22278       -5.03707        3.84940
C          4.61080        0.85122        0.45891
H          4.51060        0.50937        1.49107
C          3.67809        1.30340       -1.71481
H          2.82256        1.28130       -2.39484
C          5.85639        1.29481        0.02459
H          6.72591        1.29850        0.68443
C          4.91360        1.76515       -2.15990
H          5.05699        2.12555       -3.18013
C          5.98994        1.75070       -1.28202
F          7.17863        2.17810       -1.70077
C          0.95552        2.97597        0.10485
H          1.16466        2.91050       -0.96556
C          0.92123        1.97146        2.29237
H          1.12550        1.14032        2.96806
C          0.38095        4.13372        0.61279
H          0.15766        4.98961       -0.02652
C          0.32307        3.12031        2.81394
H          0.06502        3.20042        3.87176
C          0.05121        4.18255        1.96440
F         -0.54699        5.26933        2.44989
H         -1.44934        1.92075        0.59327
H         -2.18723        1.94560       -0.99015
C         -3.60459        1.61731        0.61763
H         -4.38158        1.24014       -0.06775
H         -3.69437        1.00852        1.53374
C         -3.88043        3.07692        0.95739
H         -3.80507        3.68389        0.03703
H         -3.08274        3.45537        1.62325
C         -5.23585        3.30882        1.60922
H         -6.02944        2.93368        0.93905
H         -5.30543        2.69542        2.52539
C         -5.49637        4.76742        1.94883
H         -6.47896        4.90570        2.42471
H         -5.47258        5.39748        1.04524
H         -4.73237        5.15857        2.63991
C         -4.10349       -1.60003       -0.28772
H         -4.07576       -1.48162        0.79811
C         -3.08708       -1.31500       -2.45842
H         -2.23830       -0.97114       -3.05830
C         -5.19720       -2.22844       -0.87479
H         -6.03208       -2.60332       -0.27994
C         -4.17965       -1.93347       -3.06026
H         -4.23275       -2.08152       -4.14037
C         -5.22077       -2.38267       -2.25715
F         -6.26419       -2.98456       -2.82183
C         -1.20428       -2.42058        1.34702
H         -1.19086       -2.99649        0.41775
C         -1.46908       -0.32214        2.49930
H         -1.65891        0.75155        2.49873
C         -0.94531       -3.06397        2.54980
H         -0.73823       -4.13470        2.59511
C         -1.20063       -0.95266        3.71579
H         -1.19092       -0.39855        4.65619
C         -0.93436       -2.31412        3.72308
F         -0.65171       -2.92015        4.87352
