100
Cat073.ts34.5.log	Energy: -1541422.4708703
C         -1.88375        0.51681       -3.04299
H         -1.77115       -0.06563       -3.96179
H         -2.91384        0.55733       -2.67322
C         -1.06088        1.69331       -2.90665
H         -0.29628        1.91038       -3.65852
H         -1.53298        2.60618       -2.52329
H         -0.50284        1.64473       -1.42179
Ir        -0.36843       -0.02379       -1.61558
C         -2.19700        0.91927        1.39658
C         -3.49852       -1.02806       -0.30947
C         -1.27985       -1.79310        1.28662
C          2.48018       -1.42750       -0.07523
C          2.91086        1.19237       -1.19522
C          1.39651        0.92991        1.22355
P          1.60670        0.15419       -0.42317
P         -1.83077       -0.41856        0.18400
C          0.20332       -1.57196       -2.52250
O          0.57299       -2.54916       -3.02969
H         -2.96443        0.59534        2.11871
H         -1.26633        1.06021        1.96834
C         -2.59376        2.23018        0.73776
H         -1.77351        2.54190        0.06952
H         -3.47423        2.08378        0.08682
C         -2.87532        3.33298        1.74741
H         -2.02273        3.40273        2.44604
H         -3.74674        3.05533        2.36847
C         -3.11977        4.69322        1.11046
H         -2.24946        4.95603        0.48240
H         -3.97441        4.62132        0.41469
C         -3.37131        5.79850        2.12300
H         -3.54426        6.76924        1.63413
H         -2.51236        5.91701        2.80350
H         -4.25354        5.57752        2.74521
C         -3.57043       -1.91979       -1.38592
H         -2.65467       -2.18129       -1.92221
C         -4.67925       -0.66188        0.34426
H         -4.64863        0.03230        1.18741
C         -4.79812       -2.44625       -1.77545
H         -4.84580       -3.15013       -2.61006
C         -5.92400       -1.16566       -0.05004
C         -7.18425       -0.72768        0.63940
H         -6.97513       -0.30651        1.63326
H         -7.70533        0.04898        0.05490
H         -7.88700       -1.56498        0.76442
C         -5.96627       -2.07143       -1.11524
H         -6.92796       -2.48352       -1.43405
C         -1.44199       -1.78035        2.67537
H         -1.94540       -0.95018        3.17230
C         -0.62867       -2.88192        0.69564
H         -0.48543       -2.87871       -0.38784
C         -0.93066       -2.82468        3.44588
H         -1.04589       -2.80067        4.53270
C         -0.11747       -3.93955        1.45115
C          0.58614       -5.08614        0.78450
H         -0.03211       -5.99844        0.80838
H          0.80598       -4.86009       -0.26851
H          1.53515       -5.32406        1.28973
C         -0.26795       -3.89039        2.84367
H          0.14002       -4.69641        3.46038
H          1.75772       -2.03221        0.49732
H          2.56048       -1.92222       -1.05709
C          3.83100       -1.38041        0.61951
H          4.56701       -0.88303       -0.03361
H          3.76955       -0.76210        1.53160
C          4.33087       -2.77029        0.99180
H          4.37239       -3.39938        0.08401
H          3.59144       -3.25551        1.65571
C          5.69329       -2.76768        1.67008
H          6.42836       -2.28564        1.00150
H          5.64673       -2.12948        2.57047
C          6.17996       -4.15646        2.05104
H          7.16583       -4.12378        2.53919
H          6.26894       -4.80517        1.16472
H          5.48045       -4.64739        2.74696
C          2.91251        1.32518       -2.58510
H          2.10669        0.85389       -3.15667
C          3.92168        1.80708       -0.44407
H          3.91733        1.71521        0.64541
C          3.92128        2.05736       -3.21044
H          3.92323        2.16082       -4.29837
C          4.93322        2.55037       -1.05672
C          6.01265        3.20709       -0.24523
H          5.84818        3.06475        0.83200
H          7.00369        2.79338       -0.49190
H          6.05780        4.29005       -0.44111
C          4.91859        2.66474       -2.45402
H          5.70076        3.24473       -2.95268
C          1.31418        0.17170        2.39574
H          1.45095       -0.91075        2.37266
C          1.17427        2.31127        1.28876
H          1.22057        2.90234        0.36878
C          1.01468        0.79724        3.60546
H          0.93591        0.19775        4.51556
C          0.88562        2.95283        2.49543
C          0.68903        4.44066        2.54139
H          1.65866        4.96384        2.58641
H          0.16491        4.80498        1.64552
H          0.10972        4.74547        3.42476
C          0.80345        2.17231        3.65700
H          0.56564        2.65125        4.61080
