70
Cat041.ts34.5.log	Energy: -2448202.8944058
C         -0.49597       -3.49529       -0.93569
H         -0.53486       -4.30452       -0.20065
H         -1.35744       -3.47839       -1.61136
C          0.80210       -3.18134       -1.48595
H          1.69112       -3.67953       -1.08834
H          0.87585       -3.03184       -2.57068
H          0.88404       -1.63226       -1.47906
Ir         0.09009       -1.65324        0.01724
C         -1.72245        0.14495       -2.58970
C         -3.33439       -0.86659       -0.47369
C         -1.72315        1.38498        0.00165
C          1.77184        0.23579        2.52469
C          3.40397       -0.67352        0.34994
C          1.62740        1.52233       -0.07930
P          1.68747       -0.12852        0.71612
P         -1.61777       -0.26853       -0.79056
C         -0.24655       -2.25378        1.77136
O         -0.45834       -2.58541        2.86067
H         -0.81498        0.72636       -2.82058
C         -1.79943       -1.10085       -3.45587
H         -2.69021       -1.70160       -3.21533
H         -0.91535       -1.73852       -3.31208
H         -2.58934        0.80006       -2.77616
H         -1.85324       -0.83482       -4.52219
C         -3.55103       -2.11772        0.10726
H         -2.68656       -2.72908        0.37552
C         -4.44307       -0.07149       -0.79501
H         -4.29972        0.92567       -1.22040
C         -4.84251       -2.58064        0.35198
H         -5.01052       -3.55799        0.80709
C         -5.73755       -0.51863       -0.55817
H         -6.60125        0.10140       -0.80377
C         -5.92880       -1.77812        0.01331
Cl        -7.53831       -2.34155        0.31194
C         -1.77487        2.59101       -0.70214
H         -1.76224        2.60289       -1.79279
C         -1.72812        1.42515        1.40367
H         -1.68123        0.48601        1.96304
C         -1.81018        3.81214       -0.03043
H         -1.81225        4.75188       -0.58521
C         -1.77442        2.63383        2.08678
H         -1.77530        2.66337        3.17783
C         -1.80066        3.82583        1.35993
Cl        -1.76794        5.34188        2.19945
H          1.60047       -0.73645        3.01143
C          3.04539        0.87740        3.05082
H          3.28554        1.82262        2.54203
H          3.90800        0.20873        2.91776
H          0.87423        0.83688        2.74772
H          2.94976        1.09124        4.12651
C          3.71467       -2.02440        0.54708
H          2.91681       -2.70743        0.85490
C          4.41657        0.19980       -0.06216
H          4.19728        1.25824       -0.21974
C          5.00672       -2.49828        0.34508
H          5.25051       -3.55038        0.50130
C          5.71098       -0.26415       -0.28259
H          6.50034        0.41356       -0.61180
C          5.99893       -1.61213       -0.07502
Cl         7.60596       -2.19453       -0.34724
C          1.46526        2.71677        0.62755
H          1.41033        2.71760        1.71636
C          1.66413        1.57365       -1.47998
H          1.77362        0.64567       -2.04835
C          1.33299        3.93332       -0.03827
H          1.17154        4.85665        0.52014
C          1.54209        2.78023       -2.15869
H          1.56499        2.81688       -3.24917
C          1.36526        3.95646       -1.42858
Cl         1.12871        5.45510       -2.26352
