82
Cat042.ts34.5.log	Energy: -1393521.7490579
C         -0.77029       -3.21404       -0.71771
H         -0.82086       -4.00148        0.03979
H         -1.69641       -3.09917       -1.29120
C          0.48560       -3.05093       -1.41013
H          1.35728       -3.63198       -1.09432
H          0.45562       -2.91805       -2.49864
H          0.72977       -1.49397       -1.45803
Ir         0.09345       -1.42369        0.10323
C         -1.50313        0.88764       -2.21470
C         -3.30044       -0.70001       -0.59564
C         -1.89387        1.45129        0.57472
C          1.81682        0.81822        2.24117
C          3.46823       -0.48675        0.27821
C          1.68838        1.59851       -0.55458
P          1.75710        0.12734        0.53185
P         -1.61321        0.04136       -0.57865
C         -0.00166       -1.98414        1.89890
O         -0.06255       -2.28919        3.01716
H         -0.64330        1.57066       -2.13037
C         -1.29470       -0.08841       -3.35974
H         -2.13169       -0.79853       -3.44925
H         -0.37593       -0.67280       -3.20427
H         -2.39123        1.51522       -2.39129
H         -1.19956        0.44508       -4.31779
C         -3.59189       -1.70190        0.33850
H         -2.79632       -2.04754        1.00392
C         -4.31963       -0.28546       -1.45849
H         -4.13844        0.49955       -2.19575
C         -4.86303       -2.25978        0.41276
H         -5.06508       -3.03557        1.15698
C         -5.58773       -0.85922       -1.39118
H         -6.36690       -0.52022       -2.07999
C         -5.88485       -1.85463       -0.45524
C         -7.24265       -2.49076       -0.39702
H         -7.57062       -2.64282        0.64229
H         -7.99852       -1.87844       -0.90903
H         -7.23508       -3.48127       -0.88194
C         -2.19760        2.74955        0.15537
H         -2.28849        2.98344       -0.90623
C         -1.78293        1.21182        1.95066
H         -1.52730        0.20575        2.29294
C         -2.36187        3.77832        1.08207
H         -2.58293        4.78892        0.72626
C         -1.96152        2.23732        2.87198
H         -1.86560        2.02071        3.93998
C         -2.24666        3.54519        2.45539
C         -2.44303        4.64590        3.45608
H         -3.41782        4.54823        3.96209
H         -1.67014        4.62041        4.23928
H         -2.41501        5.63601        2.97957
H          1.81256       -0.07187        2.89060
C          2.96745        1.74539        2.58981
H          3.00586        2.62179        1.92512
H          3.93553        1.22891        2.51698
H          0.83764        1.29968        2.39728
H          2.86226        2.11464        3.62188
C          3.71785       -1.84949        0.46514
H          2.87307       -2.50420        0.70243
C          4.54256        0.35459       -0.03907
H          4.37301        1.42294       -0.19342
C          5.00854       -2.35742        0.34413
H          5.18279       -3.42587        0.49996
C          5.82840       -0.16128       -0.16900
H          6.65380        0.51110       -0.42030
C          6.08567       -1.52538        0.01915
C          7.46899       -2.07990       -0.15544
H          7.61280       -2.99798        0.43213
H          7.65948       -2.33365       -1.21187
H          8.23665       -1.35288        0.14760
C          1.10925        2.80044       -0.14146
H          0.75481        2.92318        0.88375
C          2.08866        1.47791       -1.89413
H          2.52576        0.53865       -2.24385
C          0.93859        3.85249       -1.04196
H          0.46909        4.77710       -0.69527
C          1.92158        2.53080       -2.78379
H          2.23875        2.41080       -3.82369
C          1.34020        3.74107       -2.37477
C          1.16781        4.87431       -3.34282
H          2.14078        5.31823       -3.61038
H          0.70117        4.53350       -4.27989
H          0.54214        5.67336       -2.92114
