92
Cat077.ts34.5.log	Energy: -1880541.6010210
C          1.62533       -0.77953       -3.27111
H          1.10215       -0.79263       -4.23102
H          2.52321       -0.15655       -3.26100
C          1.63841       -1.99687       -2.50805
H          1.05481       -2.85622       -2.84857
H          2.56927       -2.27465       -1.99947
H          1.31188       -1.52236       -1.00160
Ir         0.20441       -0.45896       -1.66481
C          0.74342        3.01141       -1.00115
O          1.10339        1.20844        1.00442
O          2.88140        1.57652       -0.88005
C         -2.50470        0.10184        0.62455
O         -2.10163       -2.41122       -0.36870
O         -0.60072       -1.38666        1.48662
P         -1.23533       -1.03449       -0.01379
P          1.24219        1.28880       -0.66348
C         -1.17647       -0.03594       -2.90681
O         -1.99213        0.22007       -3.68217
H          1.41589        3.69571       -0.45924
H          0.93415        3.15093       -2.07819
C         -0.71690        3.27353       -0.66911
H         -1.33784        2.49492       -1.14432
H         -0.87055        3.17109        0.41940
C         -1.19558        4.64766       -1.11478
H         -1.03415        4.75336       -2.20277
H         -0.57217        5.42684       -0.64021
C         -2.66130        4.90376       -0.79440
H         -3.27436        4.11847       -1.26975
H         -2.81819        4.78798        0.29299
C         -3.15249        6.27148       -1.23847
H         -4.21583        6.41812       -0.99506
H         -3.04008        6.40161       -2.32676
H         -2.58434        7.07943       -0.75017
C          1.38290        2.16951        1.93130
C          0.44808        2.35379        2.95402
H         -0.46081        1.74871        2.94780
C          2.56558        2.91444        1.92155
H          3.29681        2.75553        1.12868
C          0.68431        3.28371        3.96160
H         -0.03143        3.44208        4.77024
C          2.79924        3.85165        2.92573
H          3.71417        4.44674        2.93967
C          1.85855        4.02724        3.93260
F          2.08752        4.92266        4.89272
C          3.81879        0.58224       -0.92695
C          4.80710        0.67284       -1.90923
H          4.77814        1.51090       -2.60797
C          3.82905       -0.47453       -0.01423
H          3.06427       -0.53475        0.76103
C          5.80377       -0.29400       -1.98857
H          6.58578       -0.24519       -2.74824
C          4.82479       -1.44788       -0.09459
H          4.86125       -2.27981        0.61000
C          5.79692       -1.34787       -1.08101
F          6.74914       -2.27786       -1.15672
H         -2.98483       -0.37909        1.49221
H         -1.92836        0.96012        1.00689
C         -3.53108        0.55116       -0.40284
H         -3.01976        0.97516       -1.28161
H         -4.09617       -0.32020       -0.77299
C         -4.49552        1.58482        0.15990
H         -3.91693        2.44124        0.55033
H         -5.02775        1.15934        1.02970
C         -5.50601        2.08524       -0.86202
H         -4.96537        2.45720       -1.75054
H         -6.11123        1.23399       -1.21998
C         -6.41576        3.17685       -0.32303
H         -7.14127        3.51175       -1.07954
H         -5.83422        4.05812       -0.00664
H         -6.98552        2.82743        0.55299
C         -3.18587       -2.88432        0.32450
C         -4.36258       -3.10756       -0.39339
H         -4.37666       -2.88026       -1.46095
C         -3.12827       -3.18213        1.68817
H         -2.20367       -3.01334        2.24017
C         -5.48641       -3.61955        0.24730
H         -6.41594       -3.80422       -0.29405
C         -4.25456       -3.68922        2.33288
H         -4.23607       -3.92946        3.39741
C         -5.41997       -3.90049        1.60723
F         -6.49543       -4.38628        2.22589
C          0.57618       -2.04290        1.69375
C          1.43585       -1.54153        2.67168
H          1.15433       -0.63416        3.20726
C          0.91011       -3.19796        0.98257
H          0.22112       -3.58925        0.23179
C          2.64093       -2.18611        2.93327
H          3.33665       -1.80883        3.68464
C          2.12298       -3.83634        1.23196
H          2.41672       -4.73150        0.68122
C          2.97225       -3.31997        2.20083
F          4.15120       -3.91151        2.41601
