92
Cat097.ts34.5.log	Energy: -1631479.8112832
C         -0.70982       -2.51559       -2.31392
H         -0.73907       -3.57686       -2.04789
H         -1.58994       -2.18982       -2.88096
C          0.57548       -1.98041       -2.71274
H          1.46890       -2.60459       -2.61586
H          0.61042       -1.35660       -3.61611
H          0.60314       -0.59908       -2.02818
Ir        -0.05243       -1.31570       -0.65726
C         -2.12691        1.11268       -2.30014
C         -3.47960       -0.55514       -0.37286
C         -1.84238        1.47646        0.65332
C          1.36565        0.49256        2.17521
C          3.23670       -1.02980        0.56275
C          2.10580        1.36118       -0.50192
P          1.63701       -0.13792        0.44123
P         -1.83323        0.21317       -0.67609
C         -0.30888       -2.66379        0.63713
O         -0.50770       -3.49812        1.41779
H         -2.29604        0.23388       -2.95048
C         -3.36467        1.99724       -2.37875
H         -3.45082        2.43160       -3.38839
H         -4.28624        1.43392       -2.18052
H         -3.31894        2.83354       -1.66408
C         -0.88053        1.82197       -2.82228
H          0.02476        1.21572       -2.67659
H         -0.98902        2.02957       -3.89866
H         -0.70345        2.78686       -2.32499
C         -4.58701        0.19426        0.06455
H         -4.47706        1.26338        0.25968
C         -3.65559       -1.92606       -0.56227
H         -2.79500       -2.52787       -0.86045
C         -5.81793       -0.40281        0.28071
H         -6.67744        0.17420        0.62735
C         -4.89024       -2.54216       -0.35542
H         -4.97914       -3.61750       -0.51114
C         -5.98346       -1.77963        0.06620
O         -7.21392       -2.27487        0.30178
C         -7.43422       -3.64553        0.12156
H         -6.80140       -4.25497        0.79061
H         -8.48830       -3.82997        0.36502
H         -7.24899       -3.95799       -0.92141
C         -2.09349        1.02786        1.96497
H         -2.34624       -0.02279        2.13032
C         -1.52055        2.82259        0.48255
H         -1.31151        3.21529       -0.51182
C         -2.01742        1.88362        3.04873
H         -2.20932        1.53236        4.06430
C         -1.43196        3.69986        1.56888
H         -1.17455        4.74372        1.38640
C         -1.67567        3.23322        2.86268
O         -1.61105        3.99154        3.97525
C         -1.25941        5.33958        3.85024
H         -1.98454        5.89908        3.23273
H         -1.25779        5.76130        4.86335
H         -0.25283        5.46255        3.41143
H          0.54404        1.21811        2.05123
C          0.85832       -0.63660        3.06078
H          0.65937       -0.25617        4.07519
H         -0.07019       -1.07171        2.67069
H          1.60264       -1.44508        3.14479
C          2.56874        1.18666        2.79974
H          2.98066        1.98283        2.16298
H          2.27506        1.64271        3.75916
H          3.37605        0.46798        3.00652
C          4.47169       -0.36167        0.63237
H          4.50531        0.72831        0.56959
C          3.24011       -2.42438        0.61847
H          2.28812       -2.95445        0.52790
C          5.65810       -1.06549        0.76097
H          6.62151       -0.55401        0.80620
C          4.42484       -3.14630        0.76175
H          4.38201       -4.23487        0.80344
C          5.64535       -2.46678        0.83364
O          6.84469       -3.06627        0.96039
C          6.89583       -4.46330        1.03795
H          6.49403       -4.94057        0.12671
H          7.95404       -4.73434        1.14284
H          6.34066       -4.84688        1.91208
C          2.77542        1.20400       -1.72860
H          3.09062        0.20591       -2.04514
C          1.71672        2.64701       -0.13156
H          1.18726        2.81417        0.80673
C          3.03593        2.28766       -2.54866
H          3.55507        2.16872       -3.50152
C          1.96747        3.75105       -0.95107
H          1.64106        4.73843       -0.62290
C          2.62709        3.57649       -2.16986
O          2.91289        4.57025       -3.03407
C          2.51032        5.87225       -2.71823
H          2.98263        6.23517       -1.78799
H          2.82956        6.51252       -3.55031
H          1.41343        5.94802       -2.61042
