94
Cat037.ts34.5.log	Energy: -1303998.6192406
C          1.13829       -2.98522        0.46285
H          1.08252       -3.72975       -0.33660
H          2.13379       -2.91116        0.91314
C         -0.00297       -2.88445        1.33773
H         -0.89287       -3.48753        1.13585
H          0.19001       -2.79370        2.41438
H         -0.30407       -1.35427        1.46888
Ir         0.13772       -1.17945       -0.15421
C          1.68213        1.17026        2.15406
C          3.50764       -0.52299        0.73995
C          2.26397        1.74309       -0.62163
C         -1.70157        1.14714       -2.04690
C         -3.35975       -0.80903       -0.65967
C         -1.97930        1.42459        0.87574
P         -1.76397        0.15634       -0.47645
P          1.84794        0.31014        0.51524
C          0.17563       -1.60177       -1.98393
O          0.20518       -1.82804       -3.12237
H          0.74791        1.74883        2.09871
C          1.61524        0.21206        3.33115
H          2.56707       -0.31818        3.48801
H          0.83400       -0.54651        3.16989
H          2.49609        1.90286        2.28560
H          1.37805        0.74668        4.26385
H          3.26810       -1.32125        1.46760
C          4.63331        0.31703        1.34441
H          4.31327        0.79899        2.28090
H          4.90250        1.13264        0.64948
C          5.87095       -0.53870        1.61256
H          6.68190        0.08826        2.01850
H          5.62866       -1.27770        2.39793
C          6.33998       -1.27382        0.36230
H          7.20105       -1.92020        0.59827
H          6.70010       -0.53514       -0.37700
C          5.21029       -2.08691       -0.25989
H          4.92300       -2.90443        0.42624
H          5.54987       -2.56926       -1.19083
C          3.99106       -1.21416       -0.53571
H          4.27093       -0.44605       -1.27781
H          3.17035       -1.79838       -0.97928
H          3.32293        1.99054       -0.42013
C          1.43870        3.00160       -0.33873
H          1.58108        3.33934        0.69833
H          0.36603        2.76146       -0.44210
C          1.79140        4.14074       -1.29156
H          1.15546        5.01599       -1.07885
H          2.83163        4.45974       -1.09754
C          1.66268        3.72480       -2.75122
H          1.95973        4.55318       -3.41478
H          0.60184        3.51193       -2.97758
C          2.49291        2.47993       -3.03646
H          3.56515        2.72487       -2.92485
H          2.35650        2.15546       -4.08073
C          2.12819        1.34066       -2.09151
H          1.08773        1.02681       -2.26669
H          2.73556        0.45172       -2.31113
H         -1.15601        0.49486       -2.74570
C         -2.96231        1.65829       -2.72841
H         -3.53443        2.36139       -2.10781
H         -3.63474        0.83584       -3.01323
H         -1.01160        1.97795       -1.83165
H         -2.69093        2.18555       -3.65669
H         -3.32261       -1.08361       -1.73268
C         -4.67089       -0.05949       -0.40638
H         -4.71486        0.87723       -0.97679
H         -4.72572        0.22125        0.65883
C         -5.88065       -0.92771       -0.74479
H         -6.80990       -0.37059       -0.54131
H         -5.87838       -1.14261       -1.82903
C         -5.86179       -2.23983        0.02891
H         -6.72189       -2.86801       -0.25466
H         -5.97581       -2.02446        1.10713
C         -4.55304       -2.98661       -0.19755
H         -4.49509       -3.30360       -1.25476
H         -4.52576       -3.91032        0.40324
C         -3.33922       -2.12207        0.12383
H         -3.31148       -1.90569        1.20705
H         -2.40473       -2.65216       -0.10982
H         -0.93849        1.78569        0.95341
C         -2.31419        0.78301        2.22328
H         -1.64514       -0.07430        2.39817
H         -3.34181        0.38176        2.19994
C         -2.19928        1.79069        3.36233
H         -2.48365        1.31645        4.31562
H         -1.14190        2.09304        3.47138
C         -3.05110        3.02790        3.10396
H         -2.92460        3.76087        3.91720
H         -4.11841        2.74045        3.10842
C         -2.71068        3.65979        1.75971
H         -1.67181        4.03679        1.78794
H         -3.35266        4.53554        1.57062
C         -2.84413        2.65872        0.61354
H         -3.90222        2.37291        0.50413
H         -2.54587        3.14142       -0.32945
