100
Cat172.ts34.5.log	Energy: -1775244.6420433
C         -0.95491       -3.53680       -0.87960
H         -1.16825       -4.28500       -0.11187
H         -1.79315       -3.35400       -1.55849
C          0.38234       -3.48913       -1.40960
H          1.17287       -4.10042       -0.96477
H          0.50670       -3.36204       -2.49129
H          0.73435       -1.93919       -1.45643
Ir        -0.05638       -1.79086        0.01780
O         -1.19621        0.65185       -2.07560
O         -3.06634       -0.64083       -1.13580
O         -1.74094        0.93176        0.42439
O          1.41455        0.42587        2.02232
O          3.10532       -1.02977        0.94022
O          1.90891        0.73242       -0.48683
P          1.58298       -0.41010        0.66571
P         -1.49497       -0.22287       -0.75221
C         -0.47373       -2.34976        1.79301
O         -0.77064       -2.66011        2.86290
C         -2.09119        1.29831       -2.98325
H         -1.98893        0.77409       -3.94847
H         -3.12931        1.17823       -2.64445
C         -1.72359        2.75815       -3.12708
H         -2.43713        3.21705       -3.83454
H         -1.88553        3.26163       -2.15978
C         -0.29353        2.98713       -3.59601
H         -0.17137        2.58197       -4.61630
H          0.38388        2.39718       -2.95799
C          0.11079        4.45147       -3.56658
H         -0.52564        5.06095       -4.22865
H          0.01207        4.86636       -2.54991
H          1.15564        4.59155       -3.88241
C         -3.80834       -1.51909       -0.39255
C         -3.74291       -1.54672        0.99890
H         -3.08473       -0.84984        1.52111
C         -4.65307       -2.38932       -1.08397
H         -4.68371       -2.34340       -2.17406
C         -4.50354       -2.47153        1.72540
C         -4.39049       -2.51016        3.22142
H         -4.70340       -1.55251        3.66721
H         -5.01405       -3.30525        3.65316
H         -3.34683       -2.68288        3.52692
C         -5.42308       -3.29504       -0.36348
H         -6.08706       -3.98105       -0.89511
C         -5.34469       -3.34382        1.02913
H         -5.94513       -4.06956        1.58337
C         -2.34063        2.15148        0.28286
C         -3.67045        2.27732       -0.11524
H         -4.25173        1.37758       -0.32387
C         -1.58347        3.28211        0.59552
H         -0.55485        3.14786        0.93012
C         -4.25211        3.54408       -0.24936
C         -5.67303        3.66905       -0.71772
H         -5.75793        3.41937       -1.78814
H         -6.33549        2.97963       -0.17275
H         -6.05476        4.69054       -0.58251
C         -2.16249        4.54097        0.47783
H         -1.57575        5.42945        0.72423
C         -3.48286        4.67415        0.04777
H         -3.92739        5.66792       -0.04804
C          2.38849        0.88877        2.96167
H          2.19695        0.34147        3.89934
H          3.39928        0.62871        2.61751
C          2.23704        2.37963        3.16571
H          2.99011        2.69554        3.90939
H          2.49797        2.89460        2.22692
C          0.84242        2.79741        3.61120
H          0.63742        2.38841        4.61628
H          0.10486        2.32573        2.94237
C          0.64897        4.30448        3.61169
H          1.35037        4.80392        4.29977
H          0.82563        4.72337        2.60710
H         -0.37226        4.58188        3.91359
C          3.55272       -2.08526        0.18396
C          3.74041       -1.94181       -1.18833
H          3.52207       -0.97916       -1.65667
C          3.79548       -3.30245        0.81765
H          3.62008       -3.38678        1.89104
C          4.17521       -3.02575       -1.96052
C          4.35479       -2.86650       -3.44237
H          3.41293       -2.55874       -3.92376
H          5.10135       -2.08993       -3.67207
H          4.68523       -3.80331       -3.91182
C          4.23855       -4.37841        0.05548
H          4.43210       -5.33912        0.53858
C          4.42382       -4.24420       -1.32114
H          4.76356       -5.10029       -1.90956
C          2.61937        1.88878       -0.30395
C          3.96726        1.87360        0.04969
H          4.46846        0.91556        0.19922
C          1.95264        3.09430       -0.52308
H          0.90310        3.06707       -0.81544
C          4.66451        3.07543        0.22526
C          6.10391        3.05221        0.65104
H          6.19306        2.79127        1.71854
H          6.67718        2.30167        0.08649
H          6.58355        4.03036        0.50734
C          2.64619        4.28915       -0.36332
H          2.13220        5.23793       -0.53590
C          3.98860        4.28236        0.01605
H          4.52275        5.22703        0.14483
