92
Cat113.ts34.5.log	Energy: -1631475.5592602
C         -0.97884       -2.06618       -2.09030
H         -0.78262       -3.13224       -2.23605
H         -2.03395       -1.78379       -2.14831
C          0.00839       -1.14315       -2.57170
H          0.94139       -1.51267       -3.00777
H         -0.34673       -0.22214       -3.04860
H          0.30315       -0.10303       -1.37788
Ir         0.06335       -1.38612       -0.32606
C         -1.63464        0.26172        2.37725
C         -1.86059        1.61701       -0.18057
C         -3.37684       -0.82925        0.36478
C          2.83954       -1.45302        2.05445
C          3.44144       -0.60740       -0.61611
C          1.89621        1.15221        1.17848
P          2.04538       -0.58232        0.59543
P         -1.70226       -0.06508        0.53682
C          0.04170       -3.09077        0.46619
O         -0.04673       -4.15034        0.93310
H         -0.75369        0.91803        2.47667
C         -2.85979        0.95567        2.95809
H         -2.67890        1.21328        4.01478
H         -3.12305        1.87427        2.41778
H         -3.73430        0.28738        2.92562
C         -1.33353       -1.03358        3.12008
H         -0.42439       -1.51489        2.73349
H         -1.20234       -0.83040        4.19510
H         -2.16052       -1.75462        3.01631
C         -1.46835        2.76964        0.49577
H         -1.08025        2.69760        1.51247
C         -2.32163        1.75485       -1.50924
O         -2.67948        0.60918       -2.12467
C         -3.24047        0.65264       -3.40392
H         -4.17216        1.24500       -3.41900
H         -3.46961       -0.38451       -3.67902
H         -2.53907        1.07170       -4.14717
C         -1.55582        4.03257       -0.09791
H         -1.24357        4.91501        0.46436
C         -2.41128        3.01030       -2.10982
H         -2.78268        3.11038       -3.13005
C         -2.03267        4.15212       -1.39585
H         -2.11193        5.13316       -1.87062
C         -3.42916       -2.22449        0.35107
H         -2.48522       -2.77155        0.39162
C         -4.59677       -0.12119        0.27975
O         -4.53152        1.22344        0.31032
C         -5.68898        1.98914        0.15931
H         -6.19846        1.77987       -0.79815
H         -5.36663        3.03837        0.16809
H         -6.40434        1.82423        0.98461
C         -4.63516       -2.92068        0.26620
H         -4.63594       -4.01241        0.26399
C         -5.80788       -0.81335        0.17113
H         -6.74843       -0.26683        0.09747
C         -5.82343       -2.20792        0.16887
H         -6.77925       -2.73181        0.08863
H          2.05733       -1.41995        2.83376
C          3.11893       -2.91462        1.72193
H          3.53486       -3.41761        2.60939
H          2.22353       -3.46461        1.41507
H          3.86506       -2.99531        0.91611
C          4.11536       -0.79309        2.56813
H          4.00385        0.28016        2.76550
H          4.43560       -1.28829        3.49932
H          4.92741       -0.91255        1.83534
C          3.42193       -1.64263       -1.55218
H          2.56770       -2.32762       -1.51833
C          4.52211        0.29938       -0.64663
O          4.53584        1.27048        0.28519
C          5.50585        2.27395        0.24105
H          6.52190        1.87475        0.40919
H          5.25931        2.97667        1.04740
H          5.49145        2.81496       -0.72162
C          4.43042       -1.79698       -2.50338
H          4.38942       -2.62197       -3.21748
C          5.52327        0.16552       -1.61530
H          6.35240        0.87267       -1.65021
C          5.47534       -0.88101       -2.53568
H          6.26938       -0.97305       -3.28109
C          1.75522        1.46717        2.53055
H          1.77467        0.66885        3.27466
C          1.81424        2.20125        0.23974
O          1.88726        1.84132       -1.05306
C          1.60431        2.77977       -2.05361
H          0.60446        3.22471       -1.91593
H          1.63030        2.23230       -3.00434
H          2.36187        3.58279       -2.08799
C          1.58884        2.78512        2.96239
H          1.48399        3.00080        4.02764
C          1.68107        3.52447        0.66570
H          1.63329        4.33268       -0.06384
C          1.57425        3.81314        2.02592
H          1.46275        4.85162        2.34737
