80
Cat106.ts34.5.log	Energy: -1781934.6331177
C          0.94330       -2.84707       -1.83641
H          1.03623       -2.83398       -2.92546
H          1.87309       -3.08862       -1.31407
C         -0.30581       -3.29247       -1.28850
H         -1.14513       -3.50962       -1.95323
H         -0.28902       -3.94283       -0.40617
H         -0.68954       -2.22178       -0.16905
Ir        -0.04857       -1.03766       -1.17148
C          1.58101       -1.13022        2.15123
O          3.05385       -1.06996       -0.17694
O          1.89095        1.05540        0.73301
C         -2.37817        1.60870       -1.77400
O         -3.30393       -0.52337       -0.52604
O         -1.69076        0.94843        0.85855
P         -1.82736        0.25468       -0.65268
P          1.56553       -0.54524        0.38743
C          0.20181       -0.19110       -2.85363
O          0.37915        0.31806       -3.87399
H          2.05185       -2.12660        2.05763
C          2.39797       -0.27965        3.11886
H          2.41176       -0.76633        4.10701
H          3.43714       -0.13999        2.79627
H          1.94473        0.71486        3.23326
C          0.15375       -1.31938        2.65385
H         -0.40674       -2.02429        2.02557
H          0.16992       -1.70866        3.68368
H         -0.39556       -0.36556        2.65218
C          4.24659       -0.98171        0.48688
C          4.78379       -2.13112        1.06842
H          4.23484       -3.07149        0.98995
C          4.94525        0.22638        0.54620
H          4.52734        1.11567        0.07282
C          6.00510       -2.07301        1.73420
H          6.44467       -2.95770        2.19815
C          6.16586        0.28908        1.21223
H          6.72948        1.22153        1.27609
C          6.67899       -0.85963        1.80360
F          7.84650       -0.79827        2.44291
C          1.93394        2.06717       -0.17442
C          2.35649        1.88367       -1.49420
H          2.65454        0.89283       -1.83818
C          1.57981        3.34106        0.27542
H          1.28114        3.46105        1.31831
C          2.38497        2.96791       -2.36922
H          2.69108        2.84193       -3.40889
C          1.62147        4.42736       -0.59218
H          1.34835        5.43135       -0.26247
C          2.01347        4.22496       -1.91119
F          2.04038        5.26222       -2.74845
H         -2.32993        1.08155       -2.74452
C         -3.80040        2.12306       -1.57964
H         -4.06354        2.77087       -2.43083
H         -4.52965        1.30414       -1.53075
H         -3.89509        2.72522       -0.66530
C         -1.35076        2.73446       -1.78810
H         -0.32343        2.36351       -1.90051
H         -1.55571        3.41479       -2.62840
H         -1.39847        3.32417       -0.86188
C         -3.43055       -1.82658       -0.14181
C         -3.10843       -2.22984        1.15501
H         -2.73129       -1.49640        1.86890
C         -3.90757       -2.75413       -1.06782
H         -4.14556       -2.41483       -2.07721
C         -3.25635       -3.56483        1.52494
H         -3.00821       -3.90588        2.53162
C         -4.06443       -4.08738       -0.70105
H         -4.43581       -4.83297       -1.40634
C         -3.73148       -4.47790        0.59147
F         -3.87335       -5.75526        0.94275
C         -2.56099        1.80445        1.47990
C         -3.86163        1.42508        1.82045
H         -4.23090        0.43900        1.54142
C         -2.08697        3.06911        1.83267
H         -1.06303        3.33523        1.56729
C         -4.69104        2.32117        2.48983
H         -5.71336        2.05080        2.75992
C         -2.91163        3.96539        2.50574
H         -2.56204        4.95982        2.78859
C         -4.20923        3.58121        2.82283
F         -5.00461        4.43619        3.46406
