96
Cat151.ts34.5.log	Energy: -1491530.3583881
C          1.00958       -0.45802       -3.48840
H          1.88153        0.01156       -3.95174
H          0.95465       -1.54321       -3.61431
C         -0.22511        0.27774       -3.50358
H         -0.24163        1.30556       -3.87552
H         -1.14838       -0.27090       -3.71828
H         -0.82394        0.09965       -1.99113
Ir         0.75152        0.26801       -1.46122
O         -0.26302       -1.95054        0.83425
O         -0.17655       -2.87747       -1.54982
O          1.90224       -2.65063       -0.09063
O          0.32250        1.08135        1.80897
O         -0.00539        3.02963        0.34829
O         -1.72837        1.14546        0.43648
P         -0.13856        1.39590        0.27762
P          0.56761       -1.80954       -0.56210
C          2.42134        1.17690       -1.44725
O          3.44526        1.71494       -1.41340
C          0.16348       -2.55416        2.04548
H          0.08901       -3.65410        1.96061
H          1.22072       -2.31396        2.23309
C         -0.71380       -2.04030        3.16520
H         -0.33182       -2.45195        4.11608
H         -0.59356       -0.94495        3.21659
C         -2.18552       -2.38649        2.99543
H         -2.30007       -3.48443        2.95197
H         -2.51714       -2.00644        2.01583
C         -3.06804       -1.82251        4.09612
H         -2.77493       -2.20634        5.08668
H         -2.99797       -0.72343        4.13837
H         -4.12664       -2.08032        3.93942
C         -0.49689       -4.21676       -1.19853
H         -0.50363       -4.77541       -2.14836
H          0.30353       -4.64310       -0.56939
C         -1.84923       -4.32728       -0.51509
H         -2.09236       -5.40134       -0.42752
H         -1.77657       -3.93988        0.51230
C         -2.96805       -3.59250       -1.23934
H         -3.05979       -3.98075       -2.26948
H         -2.68058       -2.53323       -1.33932
C         -4.30420       -3.69551       -0.52242
H         -4.63115       -4.74313       -0.42023
H         -4.24190       -3.26908        0.49172
H         -5.09487       -3.15151       -1.06132
C          3.12690       -2.53146       -0.80475
H          3.48353       -3.55791       -0.99203
H          2.95096       -2.04742       -1.78053
C          4.14651       -1.73798       -0.01535
H          5.07694       -1.69502       -0.60846
H          3.79281       -0.69650        0.06267
C          4.43547       -2.29546        1.37034
H          4.83824       -3.31981        1.27757
H          3.48283       -2.39881        1.91617
C          5.39669       -1.43064        2.16899
H          6.36681       -1.32874        1.65659
H          4.99420       -0.41385        2.30661
H          5.58993       -1.85075        3.16769
C          1.67432        0.78967        2.13416
H          1.63564        0.31438        3.12703
H          2.06933        0.04943        1.41668
C          2.55498        2.02239        2.16458
H          3.56656        1.70044        2.47078
H          2.66402        2.41869        1.14127
C          2.04555        3.12039        3.08561
H          1.96411        2.72614        4.11454
H          1.02308        3.38424        2.77285
C          2.92520        4.35920        3.07154
H          3.95512        4.12925        3.38996
H          2.98385        4.78888        2.05849
H          2.53633        5.14086        3.74174
C          0.05217        3.81406       -0.83721
H          0.42976        4.79763       -0.51705
H          0.78579        3.36898       -1.53116
C         -1.29294        3.94299       -1.52327
H         -1.14078        4.51053       -2.45862
H         -1.62813        2.93587       -1.82824
C         -2.36693        4.61193       -0.67905
H         -2.04761        5.63963       -0.43074
H         -2.44218        4.08287        0.28417
C         -3.72600        4.64186       -1.35800
H         -3.68827        5.19523       -2.31031
H         -4.07688        3.62242       -1.58706
H         -4.48758        5.12150       -0.72450
C         -2.46802        1.52414        1.59118
H         -2.22666        0.82789        2.41100
H         -2.17208        2.53640        1.91349
C         -3.93887        1.47236        1.24501
H         -4.51030        1.81781        2.12443
H         -4.13589        2.20130        0.44012
C         -4.41778        0.09215        0.81629
H         -4.28020       -0.61196        1.65449
H         -3.76382       -0.27115        0.00672
C         -5.86807        0.07493        0.36453
H         -6.54530        0.41332        1.16566
H         -6.02452        0.74082       -0.49963
H         -6.18488       -0.93601        0.06643
