78
Cat130.ts34.5.log	Energy: -1438568.7097378
C          0.78583       -2.46410        2.17691
H          0.54041       -3.51677        2.01081
H          1.83501       -2.27156        2.41796
C         -0.20818       -1.64764        2.81672
H         -1.19097       -2.06737        3.04915
H          0.13691       -0.91863        3.55844
H         -0.32044       -0.30621        1.94077
Ir        -0.06659       -1.26206        0.58751
O          2.42332        0.17071        2.03422
C          3.36719       -0.80000       -0.36612
C          1.87130        1.66577       -0.25263
O         -1.46841        0.36291       -2.04685
C         -3.37771       -0.85070       -0.51996
C         -2.10676        1.57422        0.28582
P         -1.71107       -0.05297       -0.46623
P          1.90176       -0.02142        0.46488
C         -0.32719       -2.76096       -0.53336
O         -0.47632       -3.68825       -1.21028
C          3.69774        0.54760        2.47907
H          4.49507       -0.04492        2.00096
H          3.89729        1.61948        2.30715
H          3.72818        0.36012        3.56262
C          3.18454       -2.15555       -0.68401
H          2.21413       -2.60302       -0.46007
C          4.61622       -0.19466       -0.65391
C          4.98350        1.24433       -0.40407
H          4.25510        1.79227        0.19749
H          5.07009        1.78549       -1.35944
H          5.96379        1.30224        0.09371
C          4.18539       -2.92022       -1.27024
H          4.00245       -3.97109       -1.50492
C          5.61114       -0.98722       -1.24647
H          6.57656       -0.52399       -1.47050
C          5.41195       -2.32739       -1.55497
H          6.21535       -2.90572       -2.01809
C          2.18628        1.79231       -1.61459
H          2.46160        0.90036       -2.18416
C          1.46293        2.80345        0.47694
C          0.96979        2.73425        1.89287
H          0.26129        1.90280        2.01985
H          0.45210        3.66520        2.15971
H          1.78489        2.57277        2.61298
C          2.19380        3.03257       -2.24179
H          2.45499        3.10879       -3.29984
C          1.49911        4.04517       -0.17235
H          1.20019        4.93345        0.39106
C          1.87635        4.17254       -1.50514
H          1.89300        5.15807       -1.97647
C         -0.78304       -0.51190       -2.91133
H          0.17739       -0.83131       -2.47333
H         -1.38098       -1.41104       -3.13822
H         -0.59632        0.03807       -3.84433
C         -3.52997       -2.04942        0.18492
H         -2.65411       -2.44673        0.70680
C         -4.48801       -0.30075       -1.20606
C         -4.43185        0.99308       -1.96261
H         -3.63102        0.98268       -2.71366
H         -4.22047        1.83453       -1.28433
H         -5.38963        1.19171       -2.46232
C         -4.74797       -2.72331        0.22509
H         -4.83731       -3.65923        0.78126
C         -5.69966       -0.99894       -1.15829
H         -6.56110       -0.58519       -1.68992
C         -5.83852       -2.19387       -0.45523
H         -6.80311       -2.70761       -0.44198
C         -2.62643        1.45076        1.58385
H         -2.78385        0.44983        1.99700
C         -1.90160        2.85615       -0.26580
C         -1.39533        3.11777       -1.65365
H         -2.12151        2.78694       -2.40953
H         -0.46402        2.57898       -1.85971
H         -1.21472        4.19209       -1.79049
C         -2.93801        2.56261        2.35471
H         -3.34246        2.43616        3.36136
C         -2.21856        3.96375        0.53774
H         -2.05753        4.96240        0.12244
C         -2.72582        3.83403        1.82500
H         -2.95834        4.72543        2.41271
