86
Cat119.ts34.5.log	Energy: -1253463.6663358
C          0.17039       -2.22775       -2.08611
H          0.43857       -3.24290       -1.77987
H         -0.79311       -2.17220       -2.60421
C          1.24038       -1.38628       -2.56535
H          2.27191       -1.74539       -2.51237
H          1.05739       -0.78137       -3.46118
H          0.99197        0.02130       -1.86314
Ir         0.54857       -0.83331       -0.48592
O         -1.61951        1.59195       -1.44089
C         -2.91844       -0.82290       -1.26463
C         -2.18137        0.65821        1.09422
O          0.82798        1.44298        1.93717
C          3.16450        0.05364        1.68697
C          2.41807        2.11193       -0.18506
P          1.71946        0.68881        0.74577
P         -1.53871        0.17374       -0.55551
C          0.82854       -2.17220        0.82128
O          1.00428       -2.97081        1.64174
C         -2.74472        2.08887       -2.11483
H         -3.02606        1.45393       -2.97285
H         -3.62695        2.20287       -1.46325
H         -2.47753        3.08384       -2.50243
H         -3.85237       -0.23766       -1.28227
H         -2.64968       -1.02122       -2.31634
C         -3.12396       -2.13651       -0.52208
H         -2.14465       -2.62512       -0.38050
H         -3.50800       -1.93158        0.49262
C         -4.07517       -3.08675       -1.23532
H         -3.68301       -3.29977       -2.24673
H         -5.05060       -2.58990       -1.39115
C         -4.28821       -4.39811       -0.49225
H         -3.30938       -4.88380       -0.33375
H         -4.67880       -4.18150        0.51792
C         -5.22643       -5.35469       -1.20998
H         -5.35995       -6.29179       -0.64850
H         -4.84117       -5.61777       -2.20840
H         -6.22348       -4.90679       -1.35133
H         -2.19816       -0.28936        1.66147
H         -1.36309        1.24190        1.54472
C         -3.50916        1.39123        1.20056
H         -3.43451        2.35956        0.67783
H         -4.31054        0.82535        0.69255
C         -3.92386        1.64258        2.64472
H         -3.12063        2.20051        3.15955
H         -3.99979        0.67580        3.17488
C         -5.23689        2.40044        2.78156
H         -5.15500        3.36404        2.24762
H         -6.03380        1.83941        2.26141
C         -5.64497        2.64820        4.22480
H         -6.59662        3.19708        4.29121
H         -4.88278        3.23789        4.75934
H         -5.76861        1.70027        4.77287
C          1.36591        2.38291        2.82998
H          2.04576        1.91656        3.56323
H          1.90866        3.19431        2.31363
H          0.52570        2.83165        3.38009
H          3.63311        0.87499        2.25539
H          2.74771       -0.65802        2.42031
C          4.19303       -0.64417        0.80680
H          3.66724       -1.36658        0.15843
H          4.66392        0.08899        0.12786
C          5.27375       -1.36008        1.60440
H          4.79591       -2.10044        2.27115
H          5.78482       -0.64055        2.27048
C          6.30506       -2.06000        0.73049
H          5.78667       -2.77246        0.06491
H          6.77738       -1.31770        0.06246
C          7.37658       -2.78818        1.52563
H          8.10595       -3.28411        0.86730
H          6.93484       -3.56140        2.17460
H          7.93352       -2.09394        2.17562
H          3.14149        2.66046        0.44374
H          2.99481        1.66074       -1.00979
C          1.33855        3.03676       -0.72984
H          0.55957        2.43808       -1.22962
H          0.82281        3.53204        0.11122
C          1.86643        4.08931       -1.69276
H          2.37507        3.58751       -2.53640
H          2.64278        4.70197       -1.19766
C          0.77219        4.99822       -2.23560
H         -0.00272        4.37361       -2.71425
H          0.26782        5.49908       -1.39011
C          1.27864        6.03915       -3.22052
H          0.46416        6.67887       -3.59328
H          1.75435        5.56434       -4.09387
H          2.03109        6.69683       -2.75587
