94
Cat184.ts34.5.log	Energy: -1725851.3637394
C          0.92792       -3.26576       -0.31400
H          0.72279       -3.84330       -1.21985
H          1.98193       -3.26019       -0.01785
C         -0.06827       -3.30383        0.72630
H         -1.01709       -3.82204        0.55661
H          0.28347       -3.40838        1.75977
H         -0.26121       -1.81053        1.18471
Ir        -0.06107       -1.35331       -0.43018
O          1.56890        0.83186        1.57519
C          3.26366       -1.04271        0.55435
C          2.33994        1.14679       -1.04662
O         -1.87875        1.20405       -1.47335
C         -3.47851       -0.65517       -0.17888
C         -1.91231        1.20543        1.22049
P         -1.80988        0.10597       -0.23069
P          1.75927       -0.07169        0.19063
C         -0.31322       -1.44283       -2.30108
O         -0.43286       -1.45947       -3.45203
C          2.22260        2.06671        1.86649
H          2.34543        2.62923        0.92415
C          3.59261        1.85380        2.48511
H          4.25463        1.28010        1.82257
H          3.50850        1.30758        3.43740
H          4.06830        2.82579        2.68778
C          1.29326        2.84347        2.77430
H          0.32210        2.99332        2.28560
H          1.12018        2.29279        3.71139
H          1.72429        3.82629        3.01914
C          4.04988       -1.58528       -0.47555
H          3.83898       -1.32086       -1.51528
C          3.52744       -1.44441        1.86496
H          2.90498       -1.05522        2.67398
C          5.08680       -2.46136       -0.19559
H          5.70669       -2.88111       -0.99018
C          4.56560       -2.32832        2.16145
H          4.74402       -2.61181        3.19911
C          5.35871       -2.83803        1.12799
O          6.38697       -3.69289        1.30559
C          6.69165       -4.11834        2.60271
H          5.84824       -4.65956        3.06746
H          7.54670       -4.80124        2.51851
H          6.97311       -3.27464        3.25801
C          1.38868        1.73625       -1.89609
H          0.34222        1.42675       -1.83181
C          3.67199        1.55679       -1.16192
H          4.43624        1.11311       -0.51945
C          1.75812        2.70568       -2.81399
H          1.02329        3.16758       -3.47645
C          4.05943        2.52110       -2.09131
H          5.10955        2.80695       -2.15620
C          3.09746        3.10544       -2.92422
O          3.36608        4.04481       -3.85098
C          4.68801        4.47412       -4.01598
H          5.35483        3.64616       -4.31494
H          4.67759        5.22654       -4.81479
H          5.08846        4.93640       -3.09630
C         -3.01465        1.58822       -2.24743
H         -3.90442        1.63015       -1.59395
C         -3.25706        0.58413       -3.35786
H         -3.48607       -0.40912       -2.94865
H         -2.36148        0.49274       -3.98989
H         -4.10512        0.90059       -3.98386
C         -2.72299        2.97684       -2.78164
H         -2.55385        3.69292       -1.96431
H         -1.82003        2.95757       -3.41098
H         -3.56353        3.34010       -3.39114
C         -4.59870       -0.00313        0.36494
H         -4.48872        0.98859        0.81123
C         -3.64887       -1.94014       -0.69847
H         -2.76786       -2.45648       -1.09501
C         -5.84478       -0.60834        0.36146
H         -6.72060       -0.11237        0.78411
C         -4.89600       -2.56139       -0.71071
H         -4.98828       -3.56504       -1.12630
C         -6.00634       -1.89253       -0.18158
O         -7.25090       -2.40117       -0.14037
C         -7.47706       -3.68158       -0.66171
H         -6.89407       -4.45135       -0.12630
H         -8.54614       -3.89038       -0.52950
H         -7.23277       -3.73561       -1.73711
C         -1.78462        0.65722        2.50537
H         -1.54391       -0.40323        2.61629
C         -2.17826        2.56732        1.10030
H         -2.24956        3.01221        0.10656
C         -1.95297        1.44305        3.63126
H         -1.85507        1.02804        4.63607
C         -2.34274        3.37540        2.22831
H         -2.54294        4.43902        2.09740
C         -2.23699        2.81188        3.50345
O         -2.37114        3.50012        4.65397
C         -2.61828        4.87599        4.59076
H         -3.56948        5.10050        4.07617
H         -2.68363        5.23279        5.62648
H         -1.80265        5.41613        4.07793
