96
Cat112.ts34.5.log	Energy: -1257702.3652827
C          0.34035        1.04434       -3.05476
H          0.00175        2.07717       -3.17553
H          1.34336        0.87075       -3.46530
C         -0.64928        0.00730       -3.23295
H         -1.69450        0.28773       -3.39287
H         -0.36534       -0.87352       -3.82338
H         -0.44968       -0.97391       -2.03676
Ir        -0.10343        0.37234       -1.06104
C          2.68451       -1.54872       -2.21021
C          3.29773        0.92321       -0.75745
C          2.51462       -1.38563        0.75046
C         -0.96512       -1.75476        1.71384
C         -2.49405        0.73851        1.51485
C         -3.00195       -1.35470       -0.40048
P         -1.61212       -0.50606        0.47584
P          2.08473       -0.47145       -0.79791
C         -0.25491        2.08131       -0.30997
O         -0.32787        3.12529        0.19709
H          2.17916       -1.08482       -3.07609
C          4.17954       -1.55777       -2.50863
H          4.38113       -2.18986       -3.38949
H          4.56232       -0.55277       -2.73583
H          4.77068       -1.96214       -1.67417
C          2.12221       -2.95741       -2.05816
H          1.03986       -2.93425       -1.85724
H          2.28233       -3.54078       -2.97885
H          2.61011       -3.50340       -1.23500
H          3.09567        1.50900       -1.67019
H          4.32913        0.54573       -0.83276
C          3.12073        1.80038        0.47632
H          2.04533        1.88583        0.69807
H          3.57875        1.30826        1.35398
C          3.69778        3.21054        0.34520
H          3.24217        3.66253       -0.55588
C          3.28872        4.05895        1.54309
H          2.19254        4.10656        1.63278
H          3.66840        5.08901        1.45626
H          3.68803        3.63513        2.48023
C          5.21028        3.20111        0.15728
H          5.60778        4.22308        0.05595
H          5.51056        2.63906       -0.74042
H          5.70800        2.73546        1.02526
H          1.86017       -2.26944        0.78703
H          2.14379       -0.71320        1.54058
C          3.95849       -1.78545        1.01803
H          4.25727       -2.57068        0.30482
H          4.63674       -0.93355        0.83333
C          4.20881       -2.30289        2.43931
H          3.47106       -3.10448        2.63494
C          5.60243       -2.91156        2.54521
H          5.74118       -3.73124        1.82296
H          5.79193       -3.31390        3.55246
H          6.37613       -2.15273        2.34004
C          4.01386       -1.21664        3.49178
H          4.18570       -1.61048        4.50535
H          2.99904       -0.79181        3.47327
H          4.72452       -0.38818        3.33183
H          0.01136       -1.31642        1.97661
C         -1.75381       -1.94339        3.00465
H         -1.25001       -2.68957        3.64115
H         -1.82307       -1.01437        3.58804
H         -2.77603       -2.30623        2.82357
C         -0.70571       -3.07823        1.00377
H         -0.19907       -2.92087        0.03907
H         -0.07032       -3.73430        1.62014
H         -1.64403       -3.62068        0.80828
H         -1.70520        1.30807        2.03522
H         -3.08260        0.22561        2.28978
C         -3.37324        1.68046        0.69885
H         -2.86425        1.91512       -0.25102
H         -4.31157        1.16493        0.42440
C         -3.71671        2.99163        1.40724
H         -2.75755        3.48679        1.64570
C         -4.49200        3.90880        0.46958
H         -3.92236        4.10821       -0.45110
H         -4.71354        4.87676        0.94552
H         -5.45368        3.45326        0.17802
C         -4.47751        2.76581        2.70885
H         -4.71977        3.72125        3.19985
H         -3.89932        2.16456        3.42704
H         -5.42875        2.23882        2.52006
H         -2.54214       -2.14013       -1.02208
H         -3.34746       -0.58956       -1.11343
C         -4.16197       -1.91408        0.41081
H         -3.81841       -2.79062        0.98383
H         -4.50075       -1.17697        1.16080
C         -5.37246       -2.33055       -0.43271
H         -5.00383       -2.99497       -1.23713
C         -6.36241       -3.12239        0.41401
H         -5.89476       -4.01882        0.85052
H         -7.22970       -3.44997       -0.17995
H         -6.74379       -2.50703        1.24620
C         -6.05795       -1.13496       -1.08554
H         -6.90854       -1.45543       -1.70660
H         -5.37642       -0.56291       -1.73260
H         -6.44772       -0.44414       -0.31880
