78
Cat122.ts34.5.log	Energy: -1343623.2371589
C         -0.36574       -2.98805       -1.21239
H         -0.43013       -3.82930       -0.51693
H         -1.22053       -2.89688       -1.88918
C          0.93565       -2.66453       -1.73261
H          1.81725       -3.18558       -1.34913
H          1.01785       -2.43060       -2.80068
H          1.02961       -1.10455       -1.63075
Ir         0.22039       -1.19075       -0.15784
O         -1.09217        0.91816       -2.40801
O         -2.75620       -0.74223       -1.69352
O         -2.32913        1.13519       -0.18573
O          1.28975        1.25352        1.85451
O          3.02823       -0.43578        1.53323
O          2.64430        1.14739       -0.30656
P          1.77428        0.20197        0.70856
P         -1.46723        0.05427       -1.07321
C         -0.16356       -1.91888        1.55645
O         -0.42917       -2.36273        2.58699
C         -2.06765        1.67624       -3.09819
H         -1.53638        2.30090       -3.82916
H         -2.77556        1.01715       -3.62277
H         -2.62927        2.32363       -2.40633
C         -3.52657       -1.63986       -0.90714
H         -3.93626       -2.37589       -1.61792
H         -2.86479       -2.18258       -0.20800
C         -4.64898       -0.95535       -0.14954
H         -5.23906       -1.74478        0.34951
H         -4.21901       -0.33326        0.65040
C         -5.55057       -0.09465       -1.02032
H         -6.00338       -0.71712       -1.81298
H         -4.92290        0.64901       -1.53655
C         -6.63842        0.61022       -0.22723
H         -7.29321       -0.10993        0.29001
H         -6.20157        1.26707        0.54262
H         -7.27516        1.23374       -0.87323
C         -1.76399        1.99028        0.79733
H         -0.70749        1.73280        0.97031
H         -1.80903        3.02188        0.40817
C         -2.53213        1.87227        2.09633
H         -2.21971        2.70292        2.75371
H         -3.60639        2.02864        1.89014
C         -2.31194        0.54432        2.80517
H         -1.24052        0.44561        3.04493
H         -2.52832       -0.27744        2.10351
C         -3.15057        0.37737        4.05984
H         -2.94046        1.17131        4.79518
H         -4.22801        0.41986        3.83028
H         -2.95071       -0.58906        4.54653
C          2.21205        1.96897        2.65618
H          2.67044        1.30541        3.40345
H          3.00869        2.42126        2.04528
H          1.64796        2.76388        3.16249
C          3.61636       -1.67090        1.15099
H          4.24645       -1.96666        2.00384
H          2.81861       -2.42604        1.03169
C          4.43917       -1.56685       -0.11829
H          4.87131       -2.56339       -0.32044
H          3.76306       -1.35088       -0.96434
C          5.53718       -0.51525       -0.06435
H          6.23898       -0.76307        0.75190
H          5.07765        0.44909        0.20247
C          6.29270       -0.37972       -1.37567
H          6.76976       -1.32876       -1.67044
H          5.61386       -0.08592       -2.19292
H          7.08316        0.38347       -1.31195
C          2.13895        1.66742       -1.52926
H          3.02699        1.86048       -2.15187
H          1.51983        0.90566       -2.03224
C          1.32806        2.93082       -1.33627
H          0.95644        3.24265       -2.32785
H          0.42850        2.68376       -0.75023
C          2.08184        4.07237       -0.67276
H          2.94024        4.36074       -1.30514
H          2.51550        3.70905        0.27252
C          1.20372        5.28313       -0.40374
H          0.77055        5.68092       -1.33583
H          0.36429        5.02234        0.26142
H          1.76671        6.09845        0.07535
