62
Cat140.ts34.5.log	Energy: -1056268.9897486
C         -0.61714       -2.51247       -1.75313
H         -0.37723       -3.49954       -1.34923
H         -1.65784       -2.38716       -2.06637
C          0.39286       -1.85129       -2.53232
H          1.38494       -2.30056       -2.62610
H          0.07487       -1.31640       -3.43333
H          0.46816       -0.32277       -1.97453
Ir         0.18612       -0.96960       -0.45049
O         -2.51469        0.07408       -2.02856
C         -3.20208       -0.67153        0.49351
C         -1.92028        1.89801       -0.03225
O          1.03639        1.57990        1.64230
C          3.18572        0.04167        1.06377
C          2.02352        1.98921       -0.75124
P          1.58268        0.62358        0.38112
P         -1.85587        0.10851       -0.49570
C          0.64983       -2.18052        0.92588
O          0.94344       -2.89579        1.79064
C         -3.72785        0.67635       -2.38785
H         -4.56843        0.36255       -1.74416
H         -3.66462        1.77893       -2.36620
H         -3.95764        0.37028       -3.41918
H         -4.13788       -0.09510        0.40163
H         -3.37107       -1.64756        0.00754
C         -2.84520       -0.87875        1.95931
H         -2.63087        0.09501        2.43392
H         -1.90570       -1.45288        2.00986
C         -3.93870       -1.59298        2.73788
H         -4.88177       -1.02286        2.72816
H         -4.14765       -2.58456        2.30587
H         -3.64974       -1.74279        3.78929
H         -1.08713        2.03972        0.67543
H         -1.60709        2.42595       -0.95142
C         -3.19822        2.50698        0.53360
H         -3.47832        1.97789        1.45944
H         -4.04144        2.36038       -0.16036
C         -3.03857        3.99047        0.83257
H         -2.22060        4.16344        1.55002
H         -2.79768        4.55758       -0.08091
H         -3.95752        4.41958        1.26030
C          0.52489        0.95820        2.79515
H         -0.15540        0.12904        2.53572
H          1.33172        0.56146        3.43641
H         -0.03052        1.71585        3.36716
H          3.69162        0.88966        1.55528
H          2.92938       -0.68641        1.85229
C          4.07724       -0.62350        0.02335
H          4.38105        0.12039       -0.73392
H          3.47932       -1.37987       -0.51341
C          5.31341       -1.26781        0.63061
H          5.93345       -0.52937        1.16402
H          5.03477       -2.05080        1.35360
H          5.94233       -1.73598       -0.14188
H          2.46645        1.50891       -1.63997
H          1.05716        2.40195       -1.08579
C          2.92012        3.08430       -0.19193
H          3.90163        2.65846        0.07697
H          2.48032        3.45774        0.74623
C          3.11853        4.23000       -1.17259
H          3.57621        3.88060       -2.11209
H          2.15777        4.70338       -1.43128
H          3.77188        5.01029       -0.75339
