84
Cat152.ts34.5.log	Energy: -1392940.2592697
C          1.10858       -2.71870       -1.40058
H          0.73973       -3.07367       -2.36649
H          2.19024       -2.56520       -1.35431
C          0.42583       -3.18896       -0.22687
H         -0.47079       -3.80527       -0.33441
H          1.03202       -3.47585        0.64070
H          0.15335       -1.92151        0.66280
Ir        -0.08200       -1.03291       -0.75304
O          3.20409       -0.50545       -0.34673
O          1.92538        1.51617       -1.22401
O          2.02434        0.93847        1.25059
O         -2.13082        1.54064        0.08393
O         -3.37891       -0.47201       -0.49236
O         -2.13283       -0.28268        1.74549
P         -1.92160       -0.07959        0.15075
P          1.74358        0.24092       -0.21377
C         -0.70882       -0.69206       -2.50741
O         -1.08278       -0.47626       -3.57811
C          4.25532       -0.49859        0.60996
H          5.17859       -0.67418        0.03318
H          4.33221        0.48834        1.08943
C          4.07742       -1.57088        1.66644
H          4.87992       -1.44600        2.41547
H          3.13104       -1.37735        2.19858
C          4.09175       -2.99276        1.12626
H          5.07191       -3.19585        0.65966
H          3.35269       -3.07256        0.31368
C          3.79917       -4.03769        2.19023
H          4.53737       -3.99965        3.00771
H          2.80628       -3.87746        2.64208
H          3.81464       -5.05672        1.77487
C          3.14144        2.27052       -1.30530
H          3.72549        2.10833       -0.38293
C          2.77696        3.73767       -1.39127
H          2.25832        4.06880       -0.48083
H          2.11313        3.91546       -2.25120
H          3.68100        4.35234       -1.51632
C          3.93640        1.78513       -2.50182
H          4.15418        0.71325       -2.40106
H          3.35699        1.93591       -3.42554
H          4.88567        2.33528       -2.59062
C          0.97468        1.30838        2.14928
H          0.03197        1.39080        1.58251
C          1.32973        2.66283        2.72539
H          1.46052        3.40225        1.92312
H          2.26777        2.60387        3.29893
H          0.53277        3.01712        3.39615
C          0.82526        0.23242        3.20485
H          0.53039       -0.71832        2.73965
H          1.77520        0.09434        3.74443
H          0.04688        0.50544        3.93145
C         -1.93890        2.22051       -1.14885
H         -0.98919        1.88359       -1.60186
H         -2.76059        1.96488       -1.83957
C         -1.88560        3.70753       -0.88567
H         -1.71903        4.20900       -1.85502
H         -2.86580        4.05714       -0.51702
C         -0.78743        4.08991        0.09545
H          0.14506        3.59039       -0.21538
H         -1.03374        3.66932        1.08334
C         -0.56444        5.58737        0.21279
H         -0.25744        6.02455       -0.75127
H         -1.48205        6.10759        0.53209
H          0.22086        5.82255        0.94803
C         -3.65821       -1.75782       -1.05118
H         -2.70322       -2.17472       -1.42308
C         -4.59978       -1.54069       -2.21483
H         -4.13138       -0.88605       -2.96373
H         -5.53550       -1.07011       -1.87504
H         -4.84544       -2.49846       -2.69721
C         -4.20698       -2.67716        0.02172
H         -3.46588       -2.81857        0.82257
H         -5.12345       -2.25659        0.46474
H         -4.44772       -3.66449       -0.40045
C         -3.27131        0.25444        2.44429
H         -4.06567        0.45114        1.70515
C         -2.88722        1.55226        3.12720
H         -2.52929        2.28000        2.38765
H         -2.09441        1.37811        3.87052
H         -3.75747        1.97955        3.64803
C         -3.73625       -0.80797        3.41718
H         -4.03031       -1.72393        2.88676
H         -2.92695       -1.05989        4.11967
H         -4.60010       -0.44848        3.99600
