82
Cat143.ts34.5.log	Energy: -1627336.7249249
C         -0.72300       -2.94404       -1.32926
H         -0.77782       -3.80312       -0.65555
H         -1.63728       -2.78172       -1.90761
C          0.54501       -2.67224       -1.95536
H          1.43011       -3.23836       -1.65095
H          0.55211       -2.40927       -3.01951
H          0.70195       -1.10000       -1.83086
Ir         0.06078       -1.22721       -0.28538
O         -1.35810        1.45479       -1.78695
O         -3.09240       -0.21008       -1.24054
O         -1.99387        1.08216        0.67854
O          1.12701        1.42935        1.41801
O          2.93125       -0.23591        1.24580
O          2.26750        1.08281       -0.85518
P          1.58712        0.25979        0.40759
P         -1.58289        0.26547       -0.70868
C         -0.12662       -2.06743        1.41780
O         -0.29462       -2.56803        2.44222
C         -2.33729        2.22840       -2.46488
H         -3.25527        1.64836       -2.62962
H         -2.57665        3.13659       -1.89242
H         -1.90399        2.51146       -3.43424
C         -3.74257       -1.30651       -0.74439
C         -3.63772       -1.68704        0.59264
H         -3.03469       -1.08930        1.27832
C         -4.52552       -2.04498       -1.63430
H         -4.58974       -1.72429       -2.67562
C         -4.28800       -2.83770        1.05529
C         -4.13473       -3.24600        2.49171
H         -3.07215       -3.28655        2.77705
H         -4.62105       -2.51973        3.16302
H         -4.58225       -4.23150        2.68143
C         -5.18907       -3.17537       -1.17116
H         -5.80243       -3.76041       -1.86084
C         -5.06521       -3.57729        0.15971
H         -5.57859       -4.47732        0.50725
C         -2.63940        2.28872        0.69320
C         -4.02732        2.34477        0.59670
H         -4.58815        1.41122        0.51091
C         -1.87689        3.45165        0.81098
H         -0.79217        3.35992        0.88920
C         -4.68561        3.58025        0.59699
C         -6.18341        3.63794        0.51198
H         -6.56990        2.93719       -0.24323
H         -6.64216        3.35984        1.47512
H         -6.53467        4.64745        0.25623
C         -2.52837        4.68074        0.80863
H         -1.94658        5.60212        0.89231
C         -3.91810        4.74629        0.69619
H         -4.41702        5.71889        0.69065
C          1.90815        2.10951        2.38770
H          2.55465        1.40786        2.93219
H          2.52725        2.88835        1.91800
H          1.19979        2.57605        3.08508
C          3.55438       -1.42282        0.95358
C          3.94660       -1.72741       -0.34810
H          3.74735       -1.00942       -1.14701
C          3.78714       -2.31461        1.99867
H          3.45142       -2.05581        3.00403
C          4.57923       -2.94407       -0.62967
C          4.97772       -3.27215       -2.03970
H          4.09468       -3.33333       -2.69611
H          5.63651       -2.49614       -2.45982
H          5.50641       -4.23366       -2.09616
C          4.42601       -3.51899        1.72348
H          4.61311       -4.22753        2.53384
C          4.81681       -3.83427        0.42198
H          5.31119       -4.78751        0.21854
C          2.84735        2.31795       -0.70930
C          4.19014        2.42177       -0.35834
H          4.76569        1.50766       -0.19577
C          2.06415        3.45237       -0.92070
H          1.01545        3.32367       -1.19585
C          4.78159        3.68081       -0.19880
C          6.23545        3.79371        0.15776
H          6.51564        3.06868        0.93649
H          6.87153        3.58888       -0.71915
H          6.48493        4.80083        0.51999
C          2.64809        4.70449       -0.75826
H          2.04867        5.60506       -0.91256
C          3.99117        4.81872       -0.39651
H          4.43592        5.80899       -0.26848
