102
Cat182.ts34.5.log	Energy: -1447670.2373659
C          1.10483       -2.93109       -1.30481
H          0.91150       -3.13179       -2.36240
H          2.15016       -3.08843       -1.01959
C          0.08317       -3.34127       -0.37083
H         -0.85807       -3.74914       -0.75104
H          0.40686       -3.84422        0.54935
H         -0.09965       -2.14144        0.59381
Ir         0.12459       -1.10291       -0.72254
O          2.06756       -0.11294        2.04853
C          3.56347       -0.97644        0.07784
C          2.14484        1.69689        0.06192
O         -1.22069        1.65161        0.46592
C         -3.01970        0.40442       -1.29310
C         -2.49231       -0.59037        1.51096
P         -1.69064        0.12537       -0.01085
P          1.94848       -0.12332        0.38017
C         -0.07922       -0.48699       -2.48811
O         -0.20699       -0.07332       -3.56427
C          0.92986        0.10236        2.86851
H          0.07504        0.37884        2.22674
C          1.22137        1.25793        3.80700
H          1.42579        2.17737        3.23995
H          2.10167        1.03476        4.42950
H          0.36504        1.44622        4.47295
C          0.61194       -1.18685        3.60188
H          0.39685       -1.98881        2.88013
H          1.47387       -1.49714        4.21258
H         -0.25981       -1.06754        4.26357
H          3.26273       -2.03230        0.21814
C          4.71431       -0.73370        1.05526
H          4.35585       -0.84709        2.08778
H          5.08361        0.29912        0.96075
C          5.86037       -1.69853        0.76103
H          6.69857       -1.51180        1.45243
H          5.52262       -2.73289        0.95627
C          6.33171       -1.58938       -0.68586
H          7.13540       -2.31681       -0.88610
H          6.77333       -0.58846       -0.84507
C          5.18011       -1.78488       -1.66703
H          4.81283       -2.82501       -1.59758
H          5.52920       -1.64909       -2.70361
C          4.02637       -0.83164       -1.37159
H          4.36551        0.20534       -1.54146
H          3.18398       -1.00605       -2.06042
H          1.23292        2.06538        0.57078
C          2.01477        2.11586       -1.40146
H          1.11299        1.66743       -1.83984
H          2.86920        1.72821       -1.98183
C          1.97035        3.63582       -1.53125
H          1.91725        3.92154       -2.59444
H          1.03943        4.00431       -1.06503
C          3.15738        4.31059       -0.85376
H          3.07019        5.40721       -0.92567
H          4.08499        4.03753       -1.38934
C          3.28117        3.87492        0.60174
H          2.40385        4.23716        1.16947
H          4.16549        4.33724        1.07043
C          3.35944        2.35549        0.71341
H          4.27553        2.01742        0.19969
H          3.44889        2.03914        1.76322
C         -1.94299        2.85437        0.71906
H         -2.96289        2.61633        1.06221
C         -2.02197        3.69922       -0.53933
H         -2.56002        3.18226       -1.34504
H         -1.01033        3.93015       -0.90266
H         -2.54375        4.64649       -0.33559
C         -1.21772        3.57370        1.84024
H         -1.16940        2.94645        2.74187
H         -0.18665        3.81043        1.53644
H         -1.72884        4.51390        2.09540
H         -2.49544        1.10007       -1.97715
C         -4.33992        1.05373       -0.86239
H         -4.18203        1.95490       -0.25626
H         -4.89717        0.34553       -0.22538
C         -5.19321        1.40900       -2.07913
H         -6.14152        1.86508       -1.75063
H         -4.66606        2.18091       -2.66917
C         -5.46053        0.19620       -2.96119
H         -6.02357        0.49274       -3.86102
H         -6.10548       -0.51309       -2.41099
C         -4.16294       -0.50602       -3.34332
H         -3.56397        0.14696       -4.00305
H         -4.37604       -1.41890       -3.92263
C         -3.33277       -0.85558       -2.11368
H         -3.89487       -1.56976       -1.48932
H         -2.40113       -1.36326       -2.39790
H         -1.59881       -0.90616        2.07520
C         -3.27652       -1.86589        1.19512
H         -2.68248       -2.52129        0.53927
H         -4.19463       -1.60841        0.64017
C         -3.66548       -2.59459        2.47702
H         -4.24508       -3.50039        2.23601
H         -2.74856       -2.93732        2.98972
C         -4.45807       -1.68568        3.40929
H         -4.70476       -2.21163        4.34574
H         -5.42269       -1.43277        2.93236
C         -3.69606       -0.40015        3.70815
H         -2.78571       -0.64573        4.28451
H         -4.29723        0.26561        4.34856
C         -3.28755        0.33464        2.43213
H         -4.19137        0.70451        1.91991
H         -2.68411        1.21450        2.69785
