108
Cat168.ts34.5.log	Energy: -1685083.5178895
C         -0.18071       -0.36710       -3.71379
H         -0.21098       -1.26951       -4.33100
H         -1.03403        0.30064       -3.87333
C          1.10971        0.24089       -3.49975
H          2.00955       -0.26463       -3.86085
H          1.18790        1.33213       -3.57548
H          1.09303        0.62770       -1.94837
Ir         0.35529       -0.84296       -1.67472
O         -1.63284        1.76694       -0.84654
C         -3.05336       -0.39375       -1.84467
C         -1.98232       -0.31158        0.96892
O          0.92879       -2.09666        1.28102
C          3.26539       -2.02454       -0.15727
C          2.04593        0.33142        1.29158
P          1.66440       -1.10539        0.17158
P         -1.56693        0.10429       -0.80643
C          0.24752       -2.72368       -1.93078
O          0.14447       -3.86675       -2.07512
C         -2.80550        2.56496       -0.82797
H         -3.29324        2.51881       -1.82053
H         -3.52412        2.19502       -0.07950
C         -2.40622        3.99282       -0.52423
H         -3.32397        4.60432       -0.47480
H         -1.96110        4.02431        0.48408
C         -1.43320        4.57682       -1.53913
H         -1.92918        4.63634       -2.52446
H         -0.59787        3.86939       -1.66389
C         -0.89872        5.94235       -1.14196
H         -1.71302        6.67247       -1.00540
H         -0.34148        5.88701       -0.19286
H         -0.21468        6.34765       -1.90338
H         -3.26174        0.47955       -2.48009
H         -2.63612       -1.16200       -2.50878
C         -4.31112       -0.88355       -1.19980
C         -5.41706       -0.03758       -1.06614
H         -5.34534        0.98946       -1.43253
C         -4.40399       -2.21780       -0.74608
C         -3.27548       -3.18816       -0.94725
H         -2.30315       -2.79818       -0.61073
H         -3.14555       -3.42830       -2.01590
H         -3.46392       -4.13169       -0.41747
C         -6.59765       -0.47347       -0.47189
H         -7.44531        0.20877       -0.37550
C         -5.59307       -2.63644       -0.13871
H         -5.66603       -3.66662        0.22070
C         -6.68264       -1.77870        0.00556
H         -7.59847       -2.13530        0.48276
H         -2.39307       -1.33048        0.92155
H         -0.99537       -0.41886        1.43906
C         -2.88247        0.57470        1.77957
C         -4.22763        0.22628        1.94867
H         -4.59320       -0.70147        1.50622
C         -2.39839        1.74553        2.40438
C         -0.94671        2.11943        2.36043
H         -0.54781        2.10798        1.33754
H         -0.34673        1.41946        2.96661
H         -0.78261        3.12397        2.77387
C         -5.10648        1.03636        2.66114
H         -6.15278        0.73930        2.76342
C         -3.29627        2.55221        3.11143
H         -2.92166        3.46469        3.58380
C         -4.64291        2.21743        3.23341
H         -5.32091        2.86988        3.78886
C          1.48749       -2.47992        2.52606
H          1.56206       -3.58189        2.53294
H          2.51184       -2.08639        2.64536
C          0.60177       -2.00522        3.66185
H          1.09430       -2.24427        4.62077
H          0.53966       -0.90350        3.61731
C         -0.80013       -2.60080        3.62477
H         -0.73904       -3.67775        3.86090
H         -1.17866       -2.53991        2.59273
C         -1.77051       -1.91011        4.56849
H         -1.41598       -1.94425        5.61159
H         -1.90429       -0.85075        4.29525
H         -2.76532       -2.37930        4.53876
H          3.08823       -3.02303        0.27131
H          3.25223       -2.15213       -1.24830
C          4.59018       -1.48949        0.29023
C          5.22906       -2.03738        1.40939
H          4.73136       -2.83817        1.96402
C          5.24049       -0.47696       -0.44742
C          4.60650        0.11502       -1.66985
H          3.60356        0.51618       -1.46022
H          4.48537       -0.64138       -2.46322
H          5.21398        0.93681       -2.07136
C          6.49115       -1.60477        1.81072
H          6.97135       -2.05229        2.68390
C          6.50560       -0.05212       -0.02967
H          7.00884        0.73408       -0.59874
C          7.13289       -0.60479        1.08489
H          8.12300       -0.25346        1.38467
H          1.05160        0.52436        1.71986
H          2.67374       -0.05398        2.10520
C          2.60973        1.61396        0.74857
C          1.88007        2.35701       -0.18991
H          0.89568        2.00327       -0.50177
C          3.83670        2.12647        1.22261
C          4.57750        1.48903        2.36166
H          4.78936        0.42562        2.18987
H          3.99417        1.56247        3.29507
H          5.53848        1.99200        2.53219
C          2.38472        3.53607       -0.73237
H          1.79638        4.09108       -1.46685
C          4.33314        3.30601        0.65587
H          5.29117        3.69443        1.01227
C          3.63196        4.00108       -0.32594
H          4.04738        4.91889       -0.74912
