74
Cat198.ts34.5.log	Energy: -1154877.7470893
C         -0.73762       -2.98914       -1.44128
H         -0.43085       -3.92571       -0.96761
H         -1.81428       -2.92786       -1.62686
C          0.14916       -2.43473       -2.43411
H          1.12272       -2.90095       -2.60878
H         -0.29165       -2.03612       -3.35466
H          0.23030       -0.85313       -2.09571
Ir         0.21802       -1.30772       -0.47798
O         -1.60388        1.44926       -0.91433
C         -3.28569       -0.73736       -0.73290
C         -2.03928        0.42069        1.59838
O          1.26500        1.46629        1.18902
C          3.41104        0.04790        0.20705
C          1.65402        1.68334       -1.41645
P          1.63673        0.44104       -0.07550
P         -1.68594       -0.03021       -0.15185
C          0.96828       -2.36222        0.89665
O          1.45010       -2.98608        1.74916
C         -2.33235        2.63349       -0.60851
H         -3.16565        2.39678        0.07577
C         -2.90636        3.16811       -1.90620
H         -3.57191        2.42743       -2.37332
H         -2.09305        3.38636       -2.61516
H         -3.47716        4.09324       -1.73431
C         -1.40740        3.62524        0.07415
H         -0.94299        3.17962        0.96397
H         -0.59599        3.92218       -0.60808
H         -1.95611        4.53167        0.37232
H         -3.16070       -0.86844       -1.82168
H         -3.30202       -1.75903       -0.31474
C         -4.59610       -0.02358       -0.42806
H         -4.59235        0.97904       -0.88454
H         -4.69287        0.13473        0.65937
C         -5.80602       -0.79782       -0.93143
H         -5.75812       -0.94608       -2.02209
H         -5.86121       -1.79524       -0.46677
H         -6.74634       -0.27153       -0.70651
H         -1.14704        0.98017        1.92151
H         -2.90094        1.10559        1.66399
C         -2.26015       -0.79381        2.49082
H         -1.38817       -1.46222        2.39811
H         -3.12333       -1.37615        2.12411
C         -2.49252       -0.41905        3.94658
H         -1.63811        0.14278        4.35699
H         -3.38653        0.21468        4.06274
H         -2.63247       -1.31271        4.57355
C          1.85770        1.47109        2.48047
H          2.95664        1.53264        2.36999
C          1.51851        0.22779        3.28279
H          1.88386       -0.69134        2.80684
H          0.43047        0.12748        3.40213
H          1.97142        0.29057        4.28387
C          1.37767        2.73989        3.15792
H          1.62289        3.62062        2.54730
H          0.28548        2.71006        3.29525
H          1.84685        2.85506        4.14617
H          3.96801        0.97182        0.43734
H          3.45567       -0.59471        1.10203
C          4.03303       -0.68337       -0.97685
H          4.05352       -0.01542       -1.85511
H          3.37538       -1.52670       -1.24891
C          5.43793       -1.18544       -0.68367
H          6.11678       -0.35832       -0.42007
H          5.43615       -1.89436        0.15950
H          5.86728       -1.70444       -1.55411
H          1.97011        1.13905       -2.32247
H          0.58765        1.92010       -1.56324
C          2.48097        2.93720       -1.18404
H          3.54873        2.67535       -1.08616
H          2.18344        3.38036       -0.21977
C          2.31252        3.95868       -2.29892
H          2.62253        3.54575       -3.27217
H          1.25951        4.26858       -2.39655
H          2.91139        4.86361       -2.11380
