100
Cat155.ts34.5.log	Energy: -1775147.9879018
C         -0.92101       -3.53214       -0.67418
H         -0.60082       -4.35875       -0.03384
H         -2.00535       -3.46685       -0.81147
C         -0.07422       -3.20463       -1.79159
H          0.88489       -3.71665       -1.91098
H         -0.55755       -2.98577       -2.75131
H          0.07396       -1.64197       -1.76637
Ir         0.09841       -1.72295       -0.08308
O         -1.69707        0.89008       -1.17443
C         -3.34726       -1.15569       -0.59110
C         -2.24707        0.44608        1.48256
O          1.73199        0.85320        1.18829
C          3.47054       -1.05397        0.41706
C          2.28573        0.69947       -1.49907
P          1.87479       -0.28608       -0.01823
P         -1.77552       -0.37765       -0.08344
C          0.61347       -2.40028        1.60949
O          0.91821       -2.78864        2.65397
C         -2.54883        2.01949       -1.14404
H         -2.76708        2.28237       -2.19418
H         -3.51692        1.77207       -0.67448
C         -1.89686        3.18825       -0.43277
H         -1.60924        2.86593        0.58077
H         -0.95748        3.44055       -0.95405
C         -2.80005        4.40826       -0.34271
H         -3.73058        4.12791        0.18237
H         -3.10861        4.72062       -1.35686
C         -2.14468        5.57678        0.37566
H         -1.85379        5.29531        1.40059
H         -1.23090        5.90305       -0.14598
H         -2.81823        6.44448        0.44467
C         -4.01419       -2.04307        0.27104
H         -3.64334       -2.18851        1.28960
C         -3.82317       -1.02068       -1.89566
H         -3.29982       -0.35648       -2.58755
C         -5.13269       -2.74184       -0.15157
H         -5.65881       -3.42975        0.51304
C         -4.94854       -1.72030       -2.33589
H         -5.29322       -1.58412       -3.36134
C         -5.61376       -2.58452       -1.46087
O         -6.70746       -3.30397       -1.78316
C         -7.22119       -3.20402       -3.08054
H         -6.48744       -3.52848       -3.83977
H         -8.09448       -3.86708       -3.12625
H         -7.54316       -2.17430       -3.31803
C         -1.22880        0.78687        2.38825
H         -0.19882        0.49769        2.16621
C         -3.55737        0.83065        1.78457
H         -4.37504        0.55683        1.11327
C         -1.51007        1.51246        3.53414
H         -0.72299        1.78522        4.23979
C         -3.85513        1.55564        2.93799
H         -4.88969        1.83373        3.14052
C         -2.82522        1.90916        3.81834
O         -3.00489        2.61260        4.95177
C         -4.29578        3.03707        5.28798
H         -4.98380        2.18568        5.43347
H         -4.20998        3.58842        6.23290
H         -4.72024        3.70838        4.52046
C          2.56126        1.99674        1.29372
H          2.77456        2.13765        2.36742
H          3.53340        1.82690        0.79838
C          1.88063        3.22490        0.72446
H          1.61092        3.02309       -0.32481
H          0.93073        3.38226        1.26328
C          2.74782        4.47194        0.79793
H          3.69056        4.28809        0.25259
H          3.03788        4.66281        1.84683
C          2.06242        5.70214        0.22543
H          1.78714        5.54393       -0.82992
H          1.13634        5.93377        0.77518
H          2.71068        6.59023        0.27232
C          4.16536       -1.82816       -0.52709
H          3.79031       -1.89864       -1.55202
C          3.95397       -1.00916        1.72420
H          3.40895       -0.43866        2.47924
C          5.31815       -2.50910       -0.17746
H          5.86847       -3.10942       -0.90436
C          5.11121       -1.69774        2.09219
H          5.45609       -1.64343        3.12493
C          5.80284       -2.45063        1.13932
O          6.92797       -3.14922        1.38900
C          7.44400       -3.15196        2.68984
H          6.72706       -3.57547        3.41529
H          8.34308       -3.78099        2.67113
H          7.72619       -2.13720        3.02284
C          3.58818        1.14536       -1.78290
H          4.42609        0.81286       -1.16547
C          1.24233        1.12860       -2.32475
H          0.21892        0.81141       -2.10728
C          3.83294        2.00043       -2.84565
H          4.84151        2.34930       -3.07519
C          1.47560        1.99178       -3.39350
H          0.63462        2.31008       -4.01023
C          2.77632        2.43740       -3.65861
O          3.10469        3.27138       -4.66195
C          2.09218        3.75020       -5.50271
H          1.33671        4.33124       -4.94486
H          2.57652        4.40834       -6.23506
H          1.58312        2.93117       -6.04042
