84
Cat156.ts34.5.log	Energy: -1736855.0552361
C         -1.00028       -3.57208       -0.17125
H         -0.77770       -4.28304        0.62919
H         -2.06686       -3.47705       -0.39699
C         -0.06298       -3.49455       -1.25771
H          0.86674       -4.06954       -1.22064
H         -0.46466       -3.41371       -2.27412
H          0.19234       -1.93282       -1.50737
Ir         0.07713       -1.72329        0.15679
O         -1.75272        0.42706       -1.64641
C         -3.36952       -1.22207       -0.24512
C         -2.11510        0.98264        1.02030
O          2.18716        0.76870        1.23177
C          3.43689       -0.93028       -0.42505
C          1.65120        1.10603       -1.28921
P          1.79009       -0.22024       -0.04321
P         -1.75900       -0.35773       -0.18505
C          0.49134       -2.25903        1.92725
O          0.70015       -2.63367        3.00124
C         -2.58739        1.52321       -1.98410
H         -2.84653        1.39705       -3.04950
H         -3.53697        1.49240       -1.42079
C         -1.86935        2.83994       -1.78123
H         -1.64625        2.97452       -0.71049
H         -0.89648        2.76641       -2.28876
C         -2.63565        4.04336       -2.30667
H         -3.57781        4.16118       -1.74232
H         -2.93268        3.86154       -3.35532
C         -1.82075        5.32517       -2.22825
H         -1.51812        5.53965       -1.19067
H         -0.90141        5.24144       -2.82987
H         -2.38652        6.19350       -2.59814
C         -3.91616       -1.76534        0.92636
H         -3.42041       -1.59465        1.88610
C         -3.99495       -1.48366       -1.46814
H         -3.55985       -1.08793       -2.38843
C         -5.07740       -2.52793        0.88357
H         -5.51756       -2.95424        1.78684
C         -5.15895       -2.24912       -1.52579
H         -5.66122       -2.45897       -2.47194
C         -5.68687       -2.75770       -0.34685
F         -6.79869       -3.48817       -0.39254
C         -3.40802        1.47802        1.24440
H         -4.26607        1.00631        0.76030
C         -1.03981        1.58931        1.68212
H         -0.02774        1.20874        1.53059
C         -3.62356        2.56432        2.08752
H         -4.62476        2.95817        2.27142
C         -1.23899        2.67944        2.52307
H         -0.40759        3.16078        3.04013
C         -2.53100        3.15580        2.71108
F         -2.72878        4.19641        3.51524
C          2.54995        0.20528        2.48264
H          1.63991       -0.11752        3.01671
H          3.18039       -0.68804        2.32806
C          3.29969        1.24545        3.28394
H          3.64406        0.76993        4.21854
H          4.20756        1.53315        2.72570
C          2.47478        2.48341        3.60729
H          1.57708        2.17573        4.17263
H          2.10498        2.92034        2.66436
C          3.24591        3.53063        4.39318
H          3.60369        3.12758        5.35424
H          4.12958        3.87798        3.83404
H          2.62480        4.41193        4.61361
C          4.51933       -0.10117       -0.75215
H          4.37535        0.97980       -0.82500
C          3.63405       -2.31048       -0.33758
H          2.77907       -2.93916       -0.06836
C          5.77571       -0.64263       -0.99501
H          6.63182       -0.01803       -1.25655
C          4.88791       -2.86761       -0.57852
H          5.06272       -3.94307       -0.51451
C          5.94076       -2.02282       -0.90543
F          7.14154       -2.54312       -1.14066
C          1.90870        2.44393       -0.97053
H          2.16764        2.70825        0.05532
C          1.31151        0.77034       -2.60451
H          1.07853       -0.26699       -2.85552
C          1.83200        3.43343       -1.94828
H          2.01507        4.48384       -1.71540
C          1.24881        1.74582       -3.59299
H          0.98208        1.50239       -4.62273
C          1.50703        3.06832       -3.24738
F          1.41019        4.01424       -4.18112
