116
Cat161.ts34.5.log	Energy: -2062387.9471882
C          0.56689       -3.34621       -0.70828
H          0.20056       -3.87549       -1.59315
H          1.62654       -3.51983       -0.49321
C         -0.32731       -3.24613        0.41918
H         -1.35278       -3.62656        0.34808
H          0.11135       -3.41661        1.41191
H         -0.30631       -1.78126        0.87761
Ir        -0.16420       -1.32452       -0.73822
O          1.35416        1.02960        1.16467
C          2.79913       -1.33529        0.89932
C          2.78218        0.80484       -1.10907
O         -2.54015        0.84903       -1.70817
C         -3.57287       -0.96867        0.04195
C         -1.77507        1.15742        1.00941
P         -2.04268       -0.01515       -0.39007
P          1.67801       -0.13939        0.04697
C         -0.35042       -1.23117       -2.60644
O         -0.45350       -1.16523       -3.75948
C          2.38268        1.77442        1.78546
H          2.12945        1.83037        2.85725
H          3.34837        1.24610        1.70270
C          2.50576        3.17129        1.20853
H          2.61616        3.09818        0.11528
H          1.56582        3.71447        1.39698
C          3.68314        3.93898        1.78897
H          4.61125        3.37126        1.59739
H          3.58572        3.99230        2.88864
C          3.81842        5.34130        1.21803
H          3.95292        5.30928        0.12481
H          2.91707        5.94268        1.42004
H          4.67919        5.87824        1.64547
C          3.54962       -2.21332        0.08877
O          3.50918       -1.94507       -1.22974
C          4.05274       -2.84213       -2.15107
H          3.81045       -2.44706       -3.14556
H          5.15061       -2.91965       -2.05399
H          3.61193       -3.84885       -2.04577
C          2.78016       -1.59641        2.28147
O          1.99866       -0.80422        3.05434
C          2.16705       -0.81962        4.44026
H          1.53886       -0.01090        4.83732
H          3.21703       -0.63256        4.72705
H          1.84291       -1.77395        4.89395
C          3.53240       -2.64529        2.83210
H          3.52346       -2.82645        3.90622
C          4.29027       -3.27013        0.62532
H          4.86802       -3.92972       -0.02144
C          4.28226       -3.46929        2.00220
H          4.86040       -4.28920        2.43458
C          2.14877        1.52664       -2.14497
O          0.81818        1.63152       -2.06505
C          0.07003        2.06401       -3.17126
H         -0.97884        1.92408       -2.88390
H          0.26492        3.12698       -3.40020
H          0.28806        1.45190       -4.06149
C          4.19015        0.85407       -1.05812
O          4.78582        0.31970        0.02701
C          6.15774        0.05927        0.02042
H          6.36555       -0.52376        0.92734
H          6.75723        0.98682        0.04386
H          6.45479       -0.53409       -0.86176
C          4.93598        1.46256       -2.07514
H          6.02447        1.47678       -2.03263
C          2.88783        2.12875       -3.17373
H          2.38119        2.64860       -3.98562
C          4.27420        2.07738       -3.13240
H          4.85510        2.54970       -3.92855
C         -3.89811        1.03611       -2.07084
H         -3.87955        1.24467       -3.15353
H         -4.45050        0.09424       -1.93321
C         -4.57915        2.16450       -1.31907
H         -5.67191        2.01478       -1.37993
H         -4.32571        2.06845       -0.24984
C         -4.21983        3.55078       -1.83564
H         -4.69883        3.70703       -2.81878
H         -3.13536        3.58314       -2.01245
C         -4.61550        4.66511       -0.88233
H         -5.69928        4.65797       -0.68030
H         -4.10224        4.54823        0.08613
H         -4.35987        5.65911       -1.28167
C         -4.42994       -0.71257        1.13148
O         -4.35278        0.50511        1.69385
C         -4.91071        0.73606        2.95395
H         -4.56417        1.72933        3.26735
H         -6.01466        0.73128        2.92495
H         -4.56761       -0.01103        3.69026
C         -3.81254       -2.14362       -0.70347
O         -3.16175       -2.22634       -1.87101
C         -3.00303       -3.45914       -2.51518
H         -2.29672       -3.28557       -3.33637
H         -3.95701       -3.82872       -2.93028
H         -2.58542       -4.21966       -1.83389
C         -4.70818       -3.12475       -0.26116
H         -4.85245       -4.04320       -0.82950
C         -5.33701       -1.68200        1.57891
H         -5.97332       -1.48856        2.44191
C         -5.44606       -2.88684        0.89249
H         -6.15369       -3.64193        1.24373
C         -1.60527        0.59183        2.28779
O         -1.89277       -0.72382        2.37902
C         -1.48636       -1.45715        3.49777
H         -1.76447       -2.50011        3.29846
H         -0.39577       -1.38899        3.63605
H         -1.99911       -1.12731        4.41895
C         -1.44554        2.51383        0.85551
O         -1.49728        3.03466       -0.38598
C         -0.92956        4.29021       -0.62298
H         -0.99155        4.45999       -1.70538
H          0.12916        4.31890       -0.31753
H         -1.48045        5.10067       -0.11382
C         -1.06026        3.28842        1.96066
H         -0.84318        4.34844        1.83890
C         -1.18515        1.34426        3.38524
H         -1.06518        0.88207        4.36448
C         -0.93184        2.70006        3.21057
H         -0.61734        3.30795        4.06249
