80
Cat169.ts34.5.log	Energy: -1204171.6500758
C         -0.77900       -3.55972       -0.63417
H         -0.39027       -4.29023        0.08069
H         -1.86776       -3.59351       -0.74177
C          0.00769       -3.32129       -1.82082
H          0.99088       -3.79010       -1.91790
H         -0.51615       -3.25523       -2.78124
H          0.02010       -1.72646       -1.99900
Ir         0.14276       -1.63562       -0.32166
O         -1.87800        0.83616       -1.35454
C         -3.40220       -1.25003       -0.44073
C         -2.01201        0.49824        1.39091
O          1.07253        1.39323        0.52388
C          3.29074       -0.06004       -0.21831
C          1.41877        0.99352       -2.18200
P          1.49792        0.18779       -0.53966
P         -1.79506       -0.38231       -0.21365
C          1.00081       -2.12273        1.29047
O          1.53224       -2.36183        2.29404
C         -2.49286        2.09906       -1.21410
H         -3.02526        2.30844       -2.15863
H         -3.25773        2.09714       -0.41901
C         -1.46355        3.17837       -0.93843
H         -0.87312        2.87604       -0.05880
H         -0.75147        3.20884       -1.78112
C         -2.06745        4.55684       -0.72313
H         -2.78405        4.51569        0.11665
H         -2.66126        4.84480       -1.60897
C         -1.01798        5.62090       -0.44328
H         -0.43893        5.37736        0.46239
H         -0.30273        5.70359       -1.27764
H         -1.46972        6.61289       -0.29232
H         -3.32441       -1.75670       -1.41795
H         -3.40083       -2.05704        0.31301
C         -4.68879       -0.43994       -0.36586
H         -4.67755        0.33478       -1.14970
H         -4.74024        0.09606        0.59741
C         -5.93200       -1.30286       -0.52714
H         -5.92775       -1.82966       -1.49473
H         -5.99072       -2.06817        0.26322
H         -6.85241       -0.70087       -0.47854
H         -1.09034        1.09185        1.49778
H         -2.86415        1.19700        1.36190
C         -2.15522       -0.45575        2.57081
H         -1.37019       -1.22669        2.50097
H         -3.11896       -0.99025        2.50671
C         -2.05734        0.25909        3.90931
H         -1.07937        0.75425        4.01723
H         -2.83478        1.03321        4.01463
H         -2.16807       -0.44309        4.74957
C          1.85013        2.46215        1.02277
H          2.91593        2.33414        0.76991
H          1.51378        3.40066        0.54687
C          1.67948        2.54614        2.52656
H          2.23668        3.42949        2.88626
H          0.61543        2.74023        2.75031
C          2.13825        1.29601        3.26312
H          3.19852        1.10184        3.02011
H          1.57772        0.42846        2.87933
C          1.97070        1.38919        4.77037
H          2.55613        2.22179        5.19318
H          0.91674        1.55712        5.04492
H          2.29647        0.46332        5.26730
H          3.85066        0.88312       -0.33100
H          3.36143       -0.35797        0.84177
C          3.89458       -1.14119       -1.10752
H          3.85673       -0.81694       -2.16210
H          3.25881       -2.04024       -1.04180
C          5.32758       -1.47836       -0.72736
H          5.98530       -0.59703       -0.80018
H          5.38388       -1.84921        0.30835
H          5.74236       -2.25858       -1.38351
H          1.74770        0.21944       -2.89716
H          0.33767        1.12194       -2.35616
C          2.17702        2.29584       -2.39057
H          3.25149        2.14983       -2.18495
H          1.82533        3.04484       -1.66300
C          2.00156        2.84614       -3.79843
H          2.36663        2.13278       -4.55429
H          0.93902        3.03928       -4.01696
H          2.54982        3.79060       -3.93636
