74
Cat178.ts34.5.log	Energy: -1154868.2943745
C          1.41498       -2.90553        0.85785
H          1.21512       -3.80716        0.27186
H          2.48208       -2.72924        1.02841
C          0.50478       -2.62291        1.94274
H         -0.37812       -3.25417        2.07986
H          0.93726       -2.30981        2.90175
H          0.19802       -1.10886        1.82481
Ir         0.19502       -1.28060        0.14407
O          2.19452        1.42915        1.15892
C          3.62457       -0.40895       -0.06617
C          1.71264        1.46813       -1.49338
O         -1.40975        1.48886       -0.59605
C         -3.13442       -0.72020       -0.93171
C         -2.37242        0.42757        1.77124
P         -1.72145       -0.00443        0.07323
P          1.91079        0.30766       -0.04857
C         -0.18031       -2.10817       -1.50529
O         -0.40211       -2.58330       -2.53914
C          1.11877        2.04420        1.85347
H          0.17225        1.78361        1.34800
C          1.30328        3.54833        1.78908
H          1.30158        3.89657        0.74646
H          2.26194        3.83780        2.24678
H          0.49323        4.06460        2.32704
C          1.08691        1.51522        3.27445
H          0.94438        0.42475        3.26789
H          2.03850        1.73446        3.78302
H          0.26865        1.97225        3.85230
H          3.56501       -1.07730        0.81115
C          3.83563       -1.27719       -1.30046
H          4.71896       -1.92197       -1.16878
H          2.96589       -1.92315       -1.49523
H          4.01182       -0.66037       -2.19529
C          4.78177        0.55013        0.18558
H          4.57274        1.20962        1.03809
H          5.69470       -0.02658        0.40804
H          4.99756        1.17740       -0.68990
H          0.79587        1.98428       -1.15851
C          2.82078        2.49880       -1.66217
H          2.47318        3.32456       -2.30548
H          3.13289        2.92540       -0.69887
H          3.70632        2.06356       -2.14955
C          1.36468        0.77443       -2.80246
H          0.52274        0.08184       -2.67697
H          1.08359        1.52503       -3.55955
H          2.21305        0.20415       -3.20940
C         -2.22117        2.50933       -1.16848
H         -3.22536        2.49475       -0.71420
C         -2.33645        2.29813       -2.66724
H         -2.82042        1.34110       -2.90555
H         -1.33513        2.29255       -3.12294
H         -2.92708        3.10351       -3.12945
C         -1.56583        3.83601       -0.83333
H         -1.47328        3.96611        0.25443
H         -0.55535        3.88346       -1.26720
H         -2.15487        4.67343       -1.23596
H         -2.70268       -0.65728       -1.94759
C         -3.36200       -2.20302       -0.63139
H         -3.94101       -2.65715       -1.45082
H         -2.41731       -2.75203       -0.52662
H         -3.93815       -2.34028        0.29484
C         -4.47774        0.00591       -0.91677
H         -4.42051        1.06191       -1.20612
H         -5.16427       -0.48672       -1.62423
H         -4.95008       -0.05046        0.07517
H         -1.42399        0.62906        2.29553
C         -3.23320        1.67781        1.89551
H         -3.46338        1.85957        2.95820
H         -2.71387        2.56937        1.51936
H         -4.19308        1.58709        1.36746
C         -3.01072       -0.78345        2.44297
H         -2.40173       -1.68957        2.30846
H         -3.11487       -0.60212        3.52456
H         -4.01769       -0.98486        2.04751
