80
Cat149.ts34.5.log	Energy: -1204162.9715508
C         -3.60795        0.68686       -0.01172
H         -4.24964        0.26550        0.76735
H         -3.71979        1.76964       -0.12394
C         -3.44050       -0.09599       -1.21233
H         -3.87895       -1.09641       -1.27323
H         -3.48566        0.43009       -2.17427
H         -1.89751       -0.05801       -1.52123
Ir        -1.62960       -0.16772        0.13961
O          0.66713        1.58745       -1.46770
C         -1.43092        3.26556       -0.63004
C          0.75656        2.29156        1.21625
O          1.43454       -1.65926        0.48945
C         -0.55889       -3.48499        0.23927
C          0.60764       -1.80042       -2.02151
P         -0.04032       -1.77432       -0.28757
P         -0.37990        1.78284       -0.18432
C         -1.92552       -0.86092        1.86597
O         -2.08086       -1.28819        2.93388
C          1.69556        2.42359       -1.96684
H          1.61653        2.37331       -3.06722
H          1.53562        3.47449       -1.68793
C          3.08837        1.98624       -1.55152
H          3.80005        2.65818       -2.06504
H          3.23543        2.16017       -0.47160
C          3.41143        0.53746       -1.87799
H          3.12807        0.32724       -2.92466
H          2.77353       -0.10944       -1.25767
C          4.87313        0.18142       -1.66471
H          5.53247        0.76846       -2.32434
H          5.18844        0.37840       -0.62785
H          5.05983       -0.88402       -1.86865
H         -2.20008        2.77967       -1.25665
C         -2.12756        3.78797        0.62424
H         -2.99654        4.40593        0.34683
H         -2.48653        2.96750        1.26340
H         -1.45621        4.41930        1.22507
C         -0.83938        4.39599       -1.46272
H         -0.45088        4.03708       -2.42543
H         -1.62858        5.13330       -1.68634
H         -0.03526        4.93337       -0.93894
H          1.54015        1.52446        1.08588
C          1.41396        3.66892        1.16178
H          2.14937        3.75627        1.97872
H          1.94897        3.86875        0.22564
H          0.67840        4.47320        1.30865
C          0.12775        2.06927        2.58890
H         -0.40830        1.11247        2.64048
H          0.91221        2.07567        3.36320
H         -0.58777        2.86540        2.84169
C          1.47119       -1.55390        1.90051
H          0.88927       -0.67376        2.22607
H          1.00088       -2.44079        2.36168
C          2.91061       -1.45152        2.35658
H          2.93095       -1.57402        3.45343
H          3.46858       -2.30746        1.93798
C          3.59510       -0.14945        1.96972
H          3.08203        0.68817        2.47390
H          3.45635        0.01165        0.88942
C          5.07548       -0.12080        2.30969
H          5.24407       -0.26676        3.38896
H          5.62025       -0.91958        1.78121
H          5.53795        0.83786        2.02869
H         -0.70598       -3.31910        1.32267
C         -1.91738       -3.88482       -0.32349
H         -2.28909       -4.78460        0.19183
H         -2.64946       -3.07595       -0.18086
H         -1.86370       -4.11740       -1.39735
C          0.49529       -4.56968        0.06320
H          1.49037       -4.23320        0.38799
H          0.22490       -5.45980        0.65399
H          0.57106       -4.88900       -0.98680
H          0.81014       -0.72256       -2.14946
C          1.90239       -2.57479       -2.24259
H          2.34842       -2.27562       -3.20484
H          2.63648       -2.38048       -1.45033
H          1.72737       -3.65878       -2.28735
C         -0.46450       -2.19565       -3.03048
H         -1.41750       -1.67859       -2.84680
H         -0.13179       -1.93515       -4.04754
H         -0.65398       -3.27980       -3.01667
