86
Cat141.ts34.5.log	Energy: -1253472.7625311
C         -0.92442       -2.96602       -1.10729
H         -1.11692       -3.79262       -0.41780
H         -1.77663       -2.73247       -1.75326
C          0.39647       -2.87829       -1.67616
H          1.17644       -3.56469       -1.33529
H          0.48463       -2.64305       -2.74251
H          0.84187       -1.31559       -1.55801
Ir         0.02890       -1.31133       -0.08789
O         -1.20394        1.38969       -1.90337
C         -3.19169       -0.33175       -1.22867
C         -1.95710        1.50953        0.59721
O          1.16713        1.26204        1.84699
C          3.17794       -0.42992        1.20508
C          2.01397        1.49207       -0.62696
P          1.57120        0.22550        0.60888
P         -1.54028        0.27477       -0.68884
C         -0.02382       -2.19266        1.58851
O         -0.03696       -2.72538        2.61719
C         -0.70273        0.93278       -3.12876
H          0.09432        0.18018       -2.98248
H         -1.49423        0.48309       -3.75599
H         -0.28436        1.79566       -3.66800
H         -3.02216       -0.97839       -2.10654
H         -3.77156        0.53651       -1.57852
C         -3.90840       -1.11170       -0.13517
H         -3.18780       -1.80625        0.33043
H         -4.22398       -0.41940        0.66710
C         -5.12964       -1.90240       -0.60868
H         -4.78441       -2.59286       -1.40193
C         -5.68877       -2.74449        0.53186
H         -4.92335       -3.41933        0.94528
H         -6.53936       -3.35966        0.19947
H         -6.04472       -2.10189        1.35461
C         -6.20666       -1.00299       -1.20460
H         -7.07946       -1.58919       -1.53179
H         -5.84038       -0.44057       -2.07669
H         -6.55903       -0.27055       -0.45830
H         -0.99529        1.96826        0.88139
H         -2.27211        0.91165        1.46740
C         -2.97935        2.57351        0.22865
H         -2.70232        3.00573       -0.74614
H         -3.97447        2.11191        0.09308
C         -3.10249        3.70045        1.25793
H         -2.10259        4.16434        1.35623
C         -4.06808        4.76949        0.76017
H         -3.76038        5.16300       -0.22115
H         -4.12845        5.61690        1.46075
H         -5.08512        4.35720        0.64904
C         -3.51667        3.18856        2.63315
H         -3.62356        4.01723        3.35025
H         -2.78217        2.48401        3.05163
H         -4.48801        2.66757        2.58043
C          0.57956        0.76603        3.02531
H         -0.33149        0.18446        2.80908
H          1.27392        0.12369        3.59450
H          0.31550        1.63210        3.64859
H          2.93785       -1.09738        2.05031
H          3.76423        0.41338        1.60306
C          3.92512       -1.20315        0.12834
H          3.22317       -1.91988       -0.33221
H          4.23543       -0.51438       -0.67954
C          5.15829       -1.96197        0.62333
H          4.82101       -2.64721        1.42377
C          5.74253       -2.80781       -0.50198
H          4.99481       -3.50541       -0.91033
H          6.60336       -3.40026       -0.15534
H          6.09089       -2.16962       -1.33149
C          6.21383       -1.03295        1.21235
H          7.09684       -1.59766        1.54947
H          5.83373       -0.46883        2.07727
H          6.55458       -0.30209        0.45906
H          1.05271        1.93942       -0.93259
H          2.37116        0.92598       -1.50214
C          3.00388        2.55676       -0.18097
H          2.68230        2.95081        0.79629
H          3.99949        2.10370       -0.02120
C          3.14872        3.72131       -1.16439
H          2.14599        4.17331       -1.28503
C          4.07691        4.78538       -0.59079
H          3.72467        5.13887        0.39073
H          4.15047        5.65820       -1.25793
H          5.09543        4.38462       -0.45425
C          3.62392        3.26527       -2.53944
H          3.74443        4.12102       -3.22159
H          2.91721        2.56605       -3.01150
H          4.60115        2.75773       -2.46757
