96
Cat167.ts34.5.log	Energy: -1586480.4917873
C          1.03895       -2.20686        2.37923
H          1.45486       -2.03314        3.37564
H          0.12219       -2.80592        2.38830
C          1.97020       -2.41709        1.30108
H          3.04357       -2.29664        1.47278
H          1.75823       -3.20564        0.56889
H          1.36817       -1.55275        0.10230
Ir         1.03029       -0.37511        1.23549
O         -1.42999       -1.00511       -0.95582
C         -2.31326       -1.45271        1.67493
C         -1.96883        1.26729        0.55761
O          0.89936        2.42673       -0.57815
C          3.44325        2.03644        0.32312
C          2.34359        0.55932       -1.94261
P          1.90544        1.14115       -0.22078
P         -1.18742       -0.42484        0.57825
C          1.35803        0.76098        2.71700
O          1.56606        1.47432        3.60496
C         -2.65920       -1.39764       -1.54272
H         -3.51709       -1.01504       -0.96911
H         -2.71573       -0.91759       -2.53318
C         -2.73043       -2.90373       -1.69500
H         -1.83043       -3.24577       -2.23443
H         -2.68309       -3.38138       -0.70039
C         -3.98517       -3.35714       -2.42746
H         -4.01540       -2.87973       -3.42258
H         -4.87704       -2.97993       -1.89519
C         -4.08048       -4.86655       -2.57849
H         -3.21950       -5.26592       -3.13796
H         -4.09333       -5.36623       -1.59651
H         -4.99366       -5.16435       -3.11537
H         -1.76735       -1.44329        2.62988
H         -2.23416       -2.47990        1.28689
C         -3.73867       -1.05696        1.90739
C         -4.79846       -1.61781        1.18278
H         -4.59244       -2.39165        0.44012
C         -4.04759       -0.10843        2.89369
H         -3.24205        0.31151        3.50289
C         -6.11295       -1.21297        1.40083
H         -6.92023       -1.66311        0.81799
C         -5.36139        0.29792        3.11703
H         -5.57438        1.04046        3.88984
C         -6.40068       -0.24505        2.36240
H         -7.43156        0.07287        2.53410
H         -1.09721        1.92684        0.44709
H         -2.39068        1.43500        1.55905
C         -2.96348        1.54886       -0.52391
C         -4.34115        1.60081       -0.28308
H         -4.71840        1.44281        0.72938
C         -2.50571        1.75492       -1.83280
H         -1.43134        1.71030       -2.02232
C         -5.23596        1.83974       -1.32471
H         -6.30809        1.87274       -1.11560
C         -3.39768        1.99624       -2.87377
H         -3.02028        2.15433       -3.88748
C         -4.77001        2.03530       -2.62410
H         -5.47310        2.22256       -3.43926
C          1.30859        3.57034       -1.30821
H          1.90063        4.23484       -0.65238
H          1.95514        3.28084       -2.15692
C          0.09615        4.31657       -1.82315
H          0.46022        5.16791       -2.42527
H         -0.45876        3.66509       -2.51865
C         -0.83904        4.81778       -0.73199
H         -0.28536        5.51064       -0.07342
H         -1.13431        3.96875       -0.09672
C         -2.08233        5.49697       -1.28118
H         -1.82472        6.35789       -1.91970
H         -2.67804        4.79509       -1.88608
H         -2.72991        5.86468       -0.47121
H          3.21940        2.40463        1.33684
H          3.60774        2.91043       -0.32404
C          4.66169        1.16337        0.30844
C          5.65620        1.35570       -0.65843
H          5.55550        2.17518       -1.37624
C          4.81939        0.11958        1.23058
H          4.04463       -0.03948        1.98388
C          6.77280        0.52217       -0.71654
H          7.53788        0.69142       -1.47803
C          5.92985       -0.71831        1.16909
H          6.03384       -1.52996        1.89334
C          6.90852       -0.52449        0.19364
H          7.77970       -1.18235        0.14928
H          3.22396        1.11996       -2.29210
H          1.48026        0.87174       -2.55042
C          2.56042       -0.91626       -2.08434
C          1.47070       -1.75970       -2.33765
H          0.46870       -1.33318       -2.42136
C          3.82599       -1.48760       -1.91498
H          4.68385       -0.84831       -1.69859
C          1.64584       -3.13881       -2.43125
H          0.78244       -3.77997       -2.62704
C          4.00050       -2.86719       -2.00519
H          4.99731       -3.29275       -1.86634
C          2.91234       -3.69883       -2.26578
H          3.05025       -4.78055       -2.33655
