92
Cat114.ts34.5.log	Energy: -1631569.8156252
C         -0.42377       -2.81536       -1.83308
H         -0.52653       -3.76317       -1.29848
H         -1.25194       -2.61522       -2.52088
C          0.90480       -2.41297       -2.22741
H          1.76778       -2.98582       -1.87620
H          1.04687       -2.01304       -3.23843
H          0.95142       -0.86346       -1.87708
Ir         0.11735       -1.23609       -0.46658
C         -1.73311        0.98451       -2.64548
O         -3.13133       -0.62215       -1.10938
O         -1.85570        1.32187        0.10953
C          0.82162        1.27733        2.03329
O          2.82515       -0.29379        1.31337
O          1.98357        1.39215       -0.48187
P          1.42243        0.26765        0.61238
P         -1.63168        0.10897       -1.02337
C         -0.09709       -2.35204        1.06200
O         -0.24132       -3.02206        1.99130
H         -1.45722        0.15324       -3.32275
C         -3.09209        1.52551       -3.07276
H         -3.04547        1.84019       -4.12803
H         -3.87925        0.76660       -2.97223
H         -3.38356        2.40284       -2.47806
C         -0.62979        2.03616       -2.71030
H          0.33006        1.65106       -2.33387
H         -0.48611        2.37282       -3.74850
H         -0.90212        2.91866       -2.11167
C         -3.49332       -1.65055       -0.28145
C         -3.33066       -1.55726        1.09913
H         -2.89861       -0.64999        1.52563
C         -4.04831       -2.79198       -0.85719
H         -4.16510       -2.83786       -1.94125
C         -3.69202       -2.62144        1.93174
C         -3.42737       -2.54185        3.40597
H         -3.63002       -1.53438        3.79889
H         -4.03768       -3.26269        3.96809
H         -2.36698       -2.76672        3.60654
C         -4.43112       -3.84362       -0.03043
H         -4.86908       -4.74307       -0.47006
C         -4.25002       -3.76422        1.35007
H         -4.54187       -4.60361        1.98621
C         -2.81594        2.29627        0.15073
C         -4.17465        1.98675        0.20151
H         -4.48748        0.94304        0.16578
C         -2.39049        3.62501        0.21285
H         -1.32109        3.84273        0.19882
C         -5.13126        3.00493        0.27953
C         -6.59190        2.65854        0.29308
H         -6.93386        2.36464       -0.71297
H         -6.79557        1.80976        0.96286
H         -7.20641        3.50960        0.61828
C         -3.33900        4.63888        0.29960
H         -3.01260        5.68047        0.34945
C         -4.69931        4.33481        0.32585
H         -5.43619        5.13915        0.39218
H          0.22748        2.05613        1.52318
C         -0.13213        0.44248        2.88321
H         -0.56712        1.07274        3.67385
H         -0.94941        0.03137        2.27798
H          0.39233       -0.39474        3.36958
C          1.90768        1.91921        2.89117
H          2.56127        2.59508        2.32646
H          1.43039        2.50442        3.69310
H          2.53743        1.14884        3.35815
C          3.55423       -1.31638        0.76845
C          3.92009       -1.31060       -0.57639
H          3.59979       -0.48380       -1.21405
C          3.93669       -2.36284        1.60632
H          3.62356       -2.34693        2.65137
C          4.67496       -2.36157       -1.11064
C          5.03857       -2.35558       -2.56748
H          4.13988       -2.45252       -3.19832
H          5.53161       -1.41355       -2.85341
H          5.71514       -3.18424       -2.81828
C          4.69384       -3.40399        1.08051
H          4.99735       -4.23031        1.72771
C          5.05957       -3.40702       -0.26600
H          5.65057       -4.23403       -0.66755
C          2.72872        2.50676       -0.20052
C          4.08178        2.39747        0.11199
H          4.53839        1.40731        0.16291
C          2.11124        3.75562       -0.27835
H          1.05461        3.80905       -0.54554
C          4.83885        3.54252        0.38514
C          6.29374        3.41387        0.73180
H          6.43908        2.73932        1.58982
H          6.86499        2.99126       -0.11010
H          6.73608        4.38727        0.98470
C          2.86163        4.89594       -0.01099
H          2.38865        5.87950       -0.06338
C          4.21141        4.79168        0.32443
H          4.78962        5.69420        0.53777
