98
Cat199.ts34.5.log	Energy: -1352077.9898235
C          0.39875       -3.08083        1.09068
H          0.07808       -3.96102        0.52682
H          1.45676       -3.08442        1.37236
C         -0.53169       -2.52830        2.03850
H         -1.54083       -2.94328        2.11221
H         -0.13264       -2.19845        3.00443
H         -0.53502       -0.95937        1.78005
Ir        -0.36973       -1.29261        0.13834
O          2.29790       -0.62255        1.89760
C          2.95402       -1.16644       -0.76552
C          2.10834        1.44246        0.13047
O         -1.63203        1.39486       -1.46387
C         -3.59013       -0.40310       -0.80429
C         -2.42490        1.36718        1.14331
P         -1.96362        0.28229       -0.26960
P          1.73698       -0.34397        0.35607
C         -0.76108       -2.13918       -1.50306
O         -1.00251       -2.64514       -2.51701
C          3.55623       -0.24435        2.44018
H          4.14475        0.30471        1.68429
C          4.30933       -1.50312        2.82531
H          4.46764       -2.14511        1.94600
H          3.72982       -2.07745        3.56419
H          5.29094       -1.26198        3.26087
C          3.30314        0.67951        3.61662
H          2.76808        1.58317        3.28943
H          2.68215        0.16888        4.36865
H          4.24698        0.98678        4.09208
H          2.44855       -1.13980       -1.74649
H          2.91876       -2.22459       -0.46058
C          4.38317       -0.65853       -0.89702
H          4.37625        0.42795       -1.08862
H          4.93386       -0.79870        0.04884
C          5.18269       -1.33264       -2.01750
H          4.61541       -1.19065       -2.95690
C          6.53889       -0.65638       -2.18127
H          6.43100        0.42136       -2.38110
H          7.11127       -1.09733       -3.01205
H          7.14464       -0.76643       -1.26597
C          5.34520       -2.83132       -1.78978
H          5.93715       -3.29280       -2.59519
H          4.37749       -3.35286       -1.75250
H          5.86948       -3.02666       -0.83856
H          3.16810        1.63127        0.37479
H          1.50750        1.96578        0.88907
C          1.78998        1.94943       -1.26918
H          2.25949        1.28835       -2.01833
H          0.70334        1.87432       -1.44570
C          2.27510        3.37838       -1.53241
H          3.37100        3.38853       -1.37427
C          2.01647        3.76892       -2.98293
H          2.49456        3.06282       -3.67961
H          2.40105        4.77646       -3.20533
H          0.93672        3.76720       -3.20419
C          1.66293        4.39171       -0.57080
H          2.01596        5.41119       -0.79100
H          1.92002        4.17387        0.47684
H          0.56421        4.39418       -0.65055
C         -2.58661        2.31248       -1.99218
H         -3.53345        2.23435       -1.42711
C         -2.85104        1.94840       -3.44055
H         -3.24929        0.92696       -3.52021
H         -1.91257        1.99132       -4.01387
H         -3.57369        2.64145       -3.89741
C         -2.05992        3.72412       -1.82765
H         -1.88689        3.95682       -0.76729
H         -1.10896        3.84354       -2.36680
H         -2.77808        4.45528       -2.22818
H         -3.38288       -0.90025       -1.76766
H         -4.30569        0.41112       -1.00011
C         -4.16075       -1.41068        0.18441
H         -3.34142       -2.08313        0.49246
H         -4.50012       -0.89165        1.09989
C         -5.31568       -2.25244       -0.36218
H         -4.93763       -2.77657       -1.26006
C         -5.72474       -3.30858        0.65775
H         -4.87170       -3.94530        0.93923
H         -6.51888       -3.96226        0.26476
H         -6.10760       -2.83723        1.57868
C         -6.51222       -1.40533       -0.78075
H         -7.33453       -2.03548       -1.15391
H         -6.25622       -0.69277       -1.57950
H         -6.89971       -0.82585        0.07471
H         -2.88274        0.71512        1.90607
H         -3.20929        2.06405        0.80271
C         -1.22388        2.10170        1.71856
H         -0.49477        1.34589        2.05424
H         -0.72214        2.66452        0.91137
C         -1.52218        3.05748        2.87424
H         -2.07512        2.48836        3.64542
C         -0.21595        3.54222        3.49418
H          0.39650        2.69863        3.84937
H         -0.39571        4.21364        4.34807
H          0.38199        4.09988        2.75331
C         -2.38828        4.23680        2.44558
H         -2.60183        4.90517        3.29406
H         -3.35506        3.91421        2.03015
H         -1.87455        4.83534        1.67403
