88
Cat100.ts34.5.log	Energy: -1442816.3310473
C         -0.67481       -2.44869       -2.27579
H         -0.67559       -3.51092       -2.01254
H         -1.56779       -2.14213       -2.83318
C          0.59258       -1.88012       -2.68468
H          1.50224       -2.48176       -2.59662
H          0.60335       -1.25368       -3.58701
H          0.59179       -0.50601       -1.99747
Ir        -0.03213       -1.23936       -0.62026
C         -2.18398        1.16491       -2.20893
C         -3.47415       -0.54786       -0.28348
C         -1.84295        1.49379        0.74734
C          1.41492        0.57626        2.20057
C          3.27307       -0.92044        0.55908
C          2.09190        1.45954       -0.49330
P          1.65807       -0.04633        0.45947
P         -1.84193        0.25183       -0.60252
C         -0.26581       -2.59049        0.67639
O         -0.45303       -3.42348        1.46036
H         -2.36113        0.29178       -2.86495
C         -3.43054        2.03976       -2.24588
H         -3.54657        2.48300       -3.24857
H         -4.34199        1.46704       -2.02882
H         -3.37186        2.86945       -1.52467
C         -0.95651        1.89132       -2.75200
H         -0.04411        1.28836       -2.64168
H         -1.09689        2.11634       -3.82121
H         -0.77147        2.84822       -2.24269
C         -3.63606       -1.91533       -0.51794
H         -2.77535       -2.49669       -0.85322
C         -4.57729        0.17544        0.19584
H         -4.47530        1.23994        0.41867
C         -4.86541       -2.53674       -0.30540
H         -4.96341       -3.60890       -0.49735
C         -5.79943       -0.45009        0.41322
H         -6.64267        0.13631        0.78998
C         -5.96879       -1.81884        0.16328
C         -7.28420       -2.49066        0.42743
H         -7.34109       -3.47323       -0.06179
H         -7.43511       -2.64939        1.50822
H         -8.12687       -1.87955        0.07010
C         -1.53328        2.84659        0.58760
H         -1.34884        3.25597       -0.40489
C         -2.06278        1.02118        2.05328
H         -2.30380       -0.03421        2.20590
C         -1.43011        3.69297        1.69403
H         -1.18070        4.74660        1.53787
C         -1.96531        1.86720        3.14809
H         -2.13764        1.46672        4.15131
C         -1.63599        3.22318        2.99232
C         -1.51189        4.12401        4.18556
H         -2.44783        4.14915        4.76610
H         -0.72051        3.77389        4.86775
H         -1.26982        5.15456        3.89040
H          0.58377        1.29392        2.09471
C          0.93704       -0.56097        3.09236
H          0.74925       -0.18404        4.11029
H          0.00804       -1.00780        2.71714
H          1.69322       -1.35943        3.16472
C          2.62359        1.28087        2.80223
H          3.01310        2.08432        2.16069
H          2.34525        1.73030        3.76941
H          3.44297        0.57050        2.98910
C          3.28802       -2.31505        0.65820
H          2.33975       -2.85697        0.61210
C          4.49744       -0.23823        0.57840
H          4.51677        0.85032        0.48979
C          4.48968       -3.00604        0.79197
H          4.47437       -4.09641        0.87558
C          5.69561       -0.93527        0.69704
H          6.63950       -0.38244        0.70483
C          5.71502       -2.33145        0.80852
C          7.01201       -3.07978        0.90485
H          6.88314       -4.04634        1.41275
H          7.42037       -3.28856       -0.09835
H          7.77191       -2.50189        1.45108
C          1.70271        2.74262       -0.10619
H          1.19703        2.90361        0.84602
C          2.73170        1.30807       -1.73349
H          3.04544        0.31240       -2.05913
C          1.93254        3.83910       -0.93893
H          1.61172        4.83272       -0.61271
C          2.96221        2.40262       -2.55517
H          3.46216        2.25578       -3.51698
C          2.56029        3.69297       -2.17687
C          2.79852        4.86567       -3.08181
H          3.86692        4.96963       -3.32892
H          2.25805        4.74756       -4.03481
H          2.46511        5.80579       -2.62064
