84
Cat154.ts34.5.log	Energy: -1487874.0893579
C          0.39096       -3.69697       -0.23620
H          0.01356       -4.27984       -1.08104
H          1.46673       -3.80451       -0.06239
C         -0.47041       -3.57252        0.91079
H         -1.48542       -3.97849        0.87491
H         -0.01239       -3.66897        1.90249
H         -0.43867       -2.04499        1.30523
Ir        -0.38466       -1.68434       -0.34116
O          1.52734        0.55844        1.26681
C          2.98145       -1.63582        0.63539
C          2.33652        0.35846       -1.32670
O         -1.64041        1.23720       -1.06202
C         -3.68127       -0.36304       -0.15148
C         -1.82535        0.79040        1.65405
P         -1.88770       -0.00206        0.00816
P          1.59794       -0.58808        0.06546
C         -0.82091       -1.79174       -2.17987
O         -1.04849       -1.82334       -3.31301
C          2.59366        1.44555        1.55499
H          2.64188        1.53496        2.65374
H          3.55902        1.01725        1.23090
C          2.39385        2.81204        0.92677
H          2.19367        2.68514       -0.14871
H          1.49420        3.28066        1.35929
C          3.59626        3.72483        1.11235
H          4.48603        3.23741        0.67588
H          3.81376        3.84152        2.18933
C          3.40487        5.09154        0.47525
H          3.21987        4.99719       -0.60694
H          2.54143        5.61877        0.91172
H          4.28960        5.73211        0.60945
C          3.69002       -2.44382       -0.26522
C          3.21771       -1.78065        2.00844
C          4.88034       -3.47850        1.56669
C          4.16517       -2.69251        2.46948
C          4.63660       -3.35436        0.19857
H          3.49478       -2.36057       -1.33802
H          5.18597       -3.97444       -0.51408
H          5.62265       -4.19368        1.92889
H          4.34514       -2.79092        3.54297
H          2.64601       -1.17373        2.71501
C          3.71232        0.58893       -1.46165
C          1.45135        0.97633       -2.21987
C          3.30129        2.06566       -3.32952
C          1.93174        1.83044       -3.20978
C          4.19105        1.43735       -2.45858
H          4.41823        0.10428       -0.78314
H          5.26596        1.60986       -2.55390
H          3.67778        2.73348       -4.10839
H          1.22981        2.31339       -3.89396
H          0.37771        0.80163       -2.11111
C         -2.56305        2.19734       -1.55172
H         -2.42913        2.21324       -2.64677
H         -3.59951        1.87932       -1.35808
C         -2.30503        3.57544       -0.97615
H         -3.04406        4.27018       -1.41309
H         -2.50643        3.55899        0.10862
C         -0.89311        4.08419       -1.23618
H         -0.74758        4.20411       -2.32442
H         -0.16989        3.30966       -0.93180
C         -0.58122        5.38852       -0.52296
H         -1.27400        6.19115       -0.82347
H         -0.67019        5.27275        0.56997
H          0.44212        5.73135       -0.73690
C         -4.08288       -1.48317       -0.88638
C         -4.65940        0.46242        0.42422
C         -6.40175       -0.93771       -0.49023
C         -6.01169        0.17552        0.25499
C         -5.43642       -1.76582       -1.06039
H         -3.31285       -2.13811       -1.30433
H         -5.73738       -2.64367       -1.63700
H         -7.46313       -1.16369       -0.61952
H         -6.76539        0.82261        0.71018
H         -4.36040        1.32854        1.02051
C         -1.11470        1.97489        1.85018
C         -2.38803        0.13782        2.75787
C         -1.55935        1.87186        4.22171
C         -2.25716        0.67762        4.03432
C         -0.98747        2.51735        3.12742
H         -0.64101        2.45961        0.99750
H         -0.43016        3.44722        3.26808
H         -1.45880        2.29582        5.22377
H         -2.70365        0.16380        4.88910
H         -2.93378       -0.79945        2.61700
