104
Cat148.ts34.5.log	Energy: -1401369.4072513
C         -0.50701       -3.31774       -1.81516
H         -0.35024       -4.26576       -1.29311
H         -1.51492       -3.21117       -2.22882
C          0.59711       -2.80731       -2.59306
H          1.56378       -3.31753       -2.55475
H          0.38218       -2.40367       -3.58910
H          0.66167       -1.24511       -2.24391
Ir         0.28533       -1.67950       -0.65985
O         -1.34491        1.15898       -1.38166
C         -3.09649       -0.94762       -1.57592
C         -2.21544        0.04180        0.99097
O          1.06993        0.87159        1.34900
C          3.32308       -0.58279        0.70602
C          2.05296        1.25320       -1.16810
P          1.68123       -0.03264        0.08271
P         -1.59694       -0.34316       -0.69869
C          0.61467       -2.71984        0.88418
O          0.80547       -3.31663        1.86035
C         -1.97574        2.37893       -1.05601
H         -2.41520        2.79400       -1.98104
H         -2.81028        2.23475       -0.34987
C         -0.96566        3.34784       -0.47342
H         -0.46880        2.85458        0.37829
H         -0.17788        3.52265       -1.22591
C         -1.56961        4.67611       -0.04515
H         -2.30156        4.50230        0.76389
H         -2.14648        5.10701       -0.88301
C         -0.52475        5.67955        0.41740
H          0.05428        5.28828        1.26914
H          0.19259        5.90648       -0.38788
H         -0.98134        6.62899        0.73499
H         -2.77496       -1.14428       -2.61281
H         -3.30535       -1.93803       -1.13452
C         -4.34046       -0.07260       -1.56086
H         -4.63408        0.14999       -0.51993
H         -4.11356        0.89927       -2.03022
C         -5.52351       -0.70655       -2.28125
H         -5.75434       -1.68151       -1.81459
H         -5.23538       -0.93618       -3.32327
C         -6.77322        0.16284       -2.28168
H         -7.05393        0.39201       -1.23816
H         -6.53528        1.13648       -2.74605
C         -7.95222       -0.47258       -3.00066
H         -8.83902        0.17900       -2.98378
H         -8.23447       -1.43060       -2.53506
H         -7.71173       -0.67986       -4.05587
H         -1.34028        0.49687        1.48001
H         -3.02683        0.78736        0.98330
C         -2.64673       -1.20250        1.75577
H         -3.61579       -1.56730        1.37064
H         -1.91630       -2.00708        1.56789
C         -2.75139       -0.96806        3.25606
H         -3.48593       -0.16718        3.46189
H         -1.78160       -0.58739        3.62374
C         -3.12546       -2.21919        4.03748
H         -4.08883       -2.60843        3.66238
H         -2.38053       -3.00562        3.82381
C         -3.21456       -1.98927        5.53735
H         -3.48084       -2.91122        6.07632
H         -3.97462       -1.22940        5.78199
H         -2.25346       -1.63372        5.94287
C          1.82758        1.41216        2.41571
H          1.96982        0.63556        3.19005
H          2.82869        1.72357        2.07623
C          1.11677        2.61193        3.00588
H          1.76436        3.02220        3.80108
H          1.04804        3.39726        2.23276
C         -0.26670        2.32344        3.56746
H         -0.18979        1.53271        4.33460
H         -0.89570        1.90282        2.76871
C         -0.94206        3.55210        4.15341
H         -0.34955        3.98731        4.97445
H         -1.07182        4.33720        3.39076
H         -1.93856        3.31178        4.55370
H          3.93783        0.27684        1.01828
H          3.11307       -1.18116        1.60916
C          4.07145       -1.43036       -0.31417
H          3.39544       -2.22751       -0.66879
H          4.31430       -0.81970       -1.20207
C          5.35031       -2.04117        0.24063
H          5.10221       -2.65708        1.12398
H          6.01721       -1.24056        0.61065
C          6.09956       -2.89354       -0.77405
H          5.42599       -3.68698       -1.14283
H          6.34239       -2.27533       -1.65672
C          7.37055       -3.51633       -0.21975
H          7.88855       -4.12572       -0.97578
H          7.15231       -4.16912        0.64074
H          8.07683       -2.74401        0.12569
H          2.63106        0.74279       -1.95777
H          1.06792        1.47717       -1.60858
C          2.73917        2.52343       -0.69376
H          2.14024        2.97308        0.11540
H          3.72786        2.29421       -0.25755
C          2.91096        3.55470       -1.80106
H          1.92838        3.74663       -2.26931
H          3.54443        3.13543       -2.60351
C          3.50201        4.87078       -1.31599
H          2.86476        5.27204       -0.50755
H          4.48557        4.67824       -0.85169
C          3.64760        5.91035       -2.41520
H          4.07646        6.84946       -2.03402
H          2.67190        6.14990       -2.86824
H          4.30347        5.54881       -3.22346
