90
Cat124.ts34.5.log	Energy: -1349063.9190604
C          0.74252       -1.61563        2.84123
H          0.39696       -2.64701        2.95087
H          1.79069       -1.44425        3.09726
C         -0.19437       -0.57205        3.14527
H         -1.22298       -0.82954        3.41328
H          0.18608        0.30661        3.67854
H         -0.19786        0.43494        1.93449
Ir         0.09817       -0.87249        0.90231
O          2.75130        0.55785        2.13489
C          3.54204       -0.75140       -0.16726
C          2.26115        1.89762       -0.18287
O         -1.20582        0.22772       -2.08888
C         -2.95221       -1.29514       -0.72421
C         -2.23155        1.57795       -0.06436
P         -1.55877       -0.09255       -0.48216
P          2.14523        0.22320        0.61015
C         -0.09019       -2.59757        0.18404
O         -0.21179       -3.66064       -0.26518
C          4.01443        1.08642        2.42610
H          4.82339        0.36015        2.23381
H          4.23186        2.01045        1.86087
H          4.02901        1.33322        3.49845
H          3.87623       -1.35936        0.69692
C          4.74194        0.04196       -0.69626
H          5.12232        0.75279        0.05078
H          4.41973        0.64723       -1.56141
C          5.86881       -0.88900       -1.13935
H          6.71370       -0.29657       -1.52715
H          6.25085       -1.43563       -0.25795
C          5.39253       -1.88964       -2.18487
H          6.20750       -2.57988       -2.45695
H          5.12490       -1.34524       -3.10889
C          4.17605       -2.66248       -1.69026
H          4.47063       -3.30273       -0.83910
H          3.80449       -3.34260       -2.47369
C          3.05747       -1.72930       -1.24038
H          2.68944       -1.15811       -2.11164
H          2.20121       -2.30341       -0.86167
H          3.32599        2.19049       -0.21074
C          1.50291        2.92979        0.65262
H          1.93372        2.99096        1.66364
H          0.46803        2.57281        0.79066
C          1.49019        4.30255       -0.01086
H          0.89026        5.00408        0.59211
H          2.51794        4.70924       -0.02691
C          0.95853        4.23491       -1.43792
H          0.98629        5.23181       -1.90691
H         -0.10315        3.92991       -1.41665
C          1.74401        3.22860       -2.26967
H          2.78591        3.58081       -2.38142
H          1.32632        3.16188       -3.28744
C          1.73605        1.85017       -1.61759
H          0.70542        1.46063       -1.60779
H          2.32689        1.14243       -2.22159
C         -0.46017       -0.70781       -2.82533
H          0.38776       -1.09499       -2.23517
H         -1.08252       -1.56184       -3.14720
H         -0.07623       -0.20011       -3.72220
H         -2.40756       -2.12181       -1.22366
C         -4.07212       -0.85569       -1.66534
H         -3.65241       -0.42681       -2.58810
H         -4.66160       -0.05711       -1.18231
C         -4.99778       -2.02851       -1.97949
H         -5.81667       -1.69912       -2.63998
H         -4.43167       -2.79225       -2.54309
C         -5.55828       -2.65438       -0.70656
H         -6.18835       -3.52491       -0.95173
H         -6.22121       -1.92284       -0.20883
C         -4.44620       -3.05490        0.25804
H         -3.84954       -3.87152       -0.18692
H         -4.87378       -3.45630        1.19124
C         -3.51919       -1.88382        0.56788
H         -4.08234       -1.10814        1.11445
H         -2.69166       -2.19504        1.22423
H         -1.30120        2.11732        0.18768
C         -3.09067        1.56128        1.20027
H         -2.59015        0.98963        1.99789
H         -4.04228        1.04374        0.98846
C         -3.39136        2.98335        1.66313
H         -4.03180        2.96233        2.55984
H         -2.44614        3.46938        1.96626
C         -4.04872        3.80091        0.55649
H         -4.22183        4.83590        0.89353
H         -5.04534        3.37523        0.33869
C         -3.21252        3.78798       -0.71865
H         -2.26050        4.31829       -0.53332
H         -3.72415        4.34577       -1.51987
C         -2.90954        2.36624       -1.18549
H         -3.84983        1.87375       -1.47993
H         -2.26846        2.37315       -2.07826
