90
Cat187.ts34.5.log	Energy: -1537187.9010486
C         -1.06917       -3.21806        0.05664
H         -0.85653       -3.86576        0.91180
H         -2.13057       -3.15651       -0.20476
C         -0.10479       -3.20843       -1.01290
H          0.83074       -3.76699       -0.91128
H         -0.48891       -3.22069       -2.03996
H          0.13790       -1.69166       -1.36394
Ir        -0.01455       -1.35001        0.28412
O         -1.60395        1.01027       -1.54086
C         -3.34089       -0.86660       -0.58536
C         -2.30357        1.20560        1.11070
O          1.93544        0.98166        1.52774
C          3.42258       -0.77176       -0.02481
C          1.89963        1.29070       -1.16430
P          1.78676        0.04701        0.16806
P         -1.79647        0.03522       -0.20858
C          0.28108       -1.58052        2.13815
O          0.43928       -1.67904        3.27967
C         -2.23749        2.27109       -1.76084
H         -2.32309        2.79438       -0.79218
C         -3.62620        2.11658       -2.35402
H         -4.28692        1.52914       -1.70250
H         -3.57772        1.61178       -3.33120
H         -4.08302        3.10736       -2.50107
C         -1.31222        3.06506       -2.65774
H         -0.32492        3.16945       -2.19030
H         -1.17962        2.55095       -3.62211
H         -1.72476        4.06764       -2.84759
C         -3.63061       -1.20923       -1.90974
H         -3.00517       -0.80974       -2.71142
C         -4.12843       -1.41997        0.43378
H         -3.89592       -1.20042        1.47935
C         -4.70021       -2.05056       -2.20851
H         -4.91194       -2.30089       -3.25207
C         -5.19595       -2.25676        0.12804
H         -5.80056       -2.67213        0.93966
C         -5.50732       -2.58438       -1.19892
C         -6.66970       -3.47921       -1.51552
H         -7.62709       -2.98544       -1.28101
H         -6.68867       -3.75446       -2.57940
H         -6.63345       -4.40772       -0.92468
C         -3.61617        1.67094        1.26740
H         -4.40845        1.30265        0.61160
C         -1.31477        1.69694        1.97180
H         -0.28612        1.34072        1.87365
C         -3.92750        2.59826        2.25729
H         -4.95942        2.94520        2.36315
C         -1.63162        2.63368        2.95078
H         -0.84066        3.00711        3.60784
C         -2.94162        3.09726        3.11737
C         -3.28535        4.07152        4.20519
H         -2.44346        4.74414        4.42482
H         -4.15775        4.68541        3.93816
H         -3.53173        3.54162        5.14071
C          3.12644        1.34398        2.22790
H          3.94547        1.49822        1.50253
C          3.51221        0.24398        3.19843
H          3.75775       -0.68505        2.66685
H          2.67558        0.03579        3.88186
H          4.39082        0.54282        3.78991
C          2.83056        2.65265        2.93404
H          2.54542        3.43887        2.21999
H          1.99960        2.51721        3.64324
H          3.71257        2.99696        3.49386
C          3.55571       -2.10574        0.37570
H          2.67033       -2.61996        0.76442
C          4.54297       -0.11433       -0.54915
H          4.45816        0.91842       -0.89704
C          4.78129       -2.75668        0.27884
H          4.86516       -3.79761        0.60382
C          5.76609       -0.77153       -0.64499
H          6.63050       -0.24086       -1.05417
C          5.90865       -2.10227       -0.23276
C          7.21968       -2.81790       -0.37233
H          7.28149       -3.33383       -1.34528
H          8.06850       -2.12114       -0.31774
H          7.34770       -3.58075        0.40923
C          2.15828        2.63668       -0.90359
H          2.22712        2.98058        0.12938
C          1.77926        0.87128       -2.49385
H          1.54916       -0.17536       -2.71075
C          2.32324        3.54001       -1.95387
H          2.52628        4.59146       -1.73155
C          1.95027        1.77418       -3.53473
H          1.85720        1.42770       -4.56791
C          2.22808        3.12583       -3.28534
C          2.36186        4.10262       -4.41577
H          2.89863        3.66200       -5.26905
H          1.36842        4.41233       -4.78180
H          2.89618        5.01157       -4.10484
