50
Cat175.ts34.5.log	Energy: -957683.7231495
C          2.70052       -1.98058       -0.02151
H          3.61006       -1.70009        0.51698
H          2.30767       -2.95971        0.27096
C          2.62664       -1.61476       -1.41614
H          3.41421       -0.99272       -1.85020
H          2.24800       -2.35998       -2.12511
H          1.14825       -1.03419       -1.61335
Ir         1.32102       -0.32684       -0.09600
O         -1.80473       -1.50965       -0.35709
C         -0.33704       -3.21242        1.20329
C         -1.26552       -0.72176        2.20389
O         -0.92300        2.04628        0.31701
C          1.08654        2.96563       -1.29639
C         -0.93860        1.18171       -2.27068
P          0.13621        1.47592       -0.82699
P         -0.51747       -1.45690        0.70460
C          2.31985        0.75823        1.09441
O          2.89708        1.44695        1.82451
C         -3.06377       -2.10039       -0.05867
H         -3.04803       -2.52235        0.96372
C         -3.30648       -3.22916       -1.04228
H         -2.51611       -3.98943       -0.96210
H         -3.29973       -2.83931       -2.07169
H         -4.27722       -3.71428       -0.85856
C         -4.13078       -1.02425       -0.11401
H         -3.91307       -0.22776        0.61107
H         -4.16249       -0.57341       -1.11821
H         -5.12492       -1.43992        0.11007
H          0.43856       -3.26571        1.98131
H         -1.26815       -3.64652        1.59839
H          0.00082       -3.80229        0.33905
H         -0.50850       -0.75121        3.00096
H         -1.47608        0.33163        1.97173
H         -2.17734       -1.23582        2.54642
C         -1.74169        3.19847        0.14017
H         -1.60052        3.60513       -0.87900
C         -1.31517        4.24959        1.14641
H         -0.26095        4.52471        0.99954
H         -1.42283        3.85643        2.16869
H         -1.92937        5.15810        1.05379
C         -3.19199        2.78338        0.29047
H         -3.45521        2.01971       -0.45479
H         -3.36296        2.35807        1.29148
H         -3.86370        3.64541        0.16135
H          0.45615        3.80942       -1.61666
H          1.70531        3.26610       -0.43872
H          1.76027        2.68426       -2.11834
H         -1.57597        0.32209       -2.01793
H         -1.55191        2.05601       -2.53639
H         -0.30368        0.90837       -3.12569
