70
Cat133.ts34.5.log	Energy: -1528730.1954123
C         -1.11240        0.21334        3.19058
H         -0.87623        1.04867        3.85483
H         -2.18209        0.05155        3.02955
C         -0.25387       -0.93731        3.23622
H          0.66006       -0.91019        3.83499
H         -0.71099       -1.93222        3.19285
H         -0.03190       -1.30738        1.67644
Ir         0.09018        0.33289        1.39340
O         -1.34243       -0.33430       -1.51774
O         -2.95490       -0.68570        0.46837
O         -2.53697        1.59723       -0.38354
O          1.76721        0.78464       -1.44954
O          3.25473       -0.01591        0.45210
O          1.69523       -1.59695       -0.81961
P          1.70001       -0.10658       -0.09716
P         -1.66280        0.22356       -0.01244
C          0.77530        2.07414        1.81353
O          1.18496        3.12435        2.04101
C         -2.06474       -0.05399       -2.70546
H         -2.56876        0.92137       -2.64766
H         -1.33906       -0.03707       -3.53122
H         -2.81595       -0.83524       -2.89485
C         -3.94769       -1.13173       -0.36476
C         -3.90389       -2.45653       -0.79960
H         -3.07907       -3.08844       -0.46503
C         -4.98539       -0.28559       -0.75589
H         -4.99015        0.74468       -0.39906
C         -4.90003       -2.93226       -1.64893
H         -4.86712       -3.96884       -1.99330
C         -5.97575       -0.77276       -1.60654
H         -6.78836       -0.11228       -1.91871
C         -5.93565       -2.09167       -2.05904
H         -6.71476       -2.46651       -2.72642
C         -1.96316        2.83477       -0.49114
C         -2.67034        3.91890        0.02858
H         -3.63307        3.73703        0.50975
C         -0.72121        3.02330       -1.10050
H         -0.15614        2.17116       -1.48168
C         -2.13326        5.19954       -0.06732
H         -2.68857        6.04763        0.34042
C         -0.18818        4.30873       -1.17467
H          0.79332        4.45031       -1.63325
C         -0.88831        5.39980       -0.66453
H         -0.46336        6.40391       -0.72572
C          2.05311        0.31331       -2.75539
H          3.08713       -0.05382       -2.83564
H          1.35892       -0.49083       -3.03721
H          1.92054        1.17022       -3.42946
C          4.33896       -0.03121       -0.39292
C          4.88138       -1.24351       -0.81861
H          4.42997       -2.17966       -0.48708
C          4.89061        1.18192       -0.80303
H          4.43935        2.11093       -0.45051
C          5.98444       -1.23467       -1.67039
H          6.41202       -2.18244       -2.00607
C          5.99258        1.17836       -1.65457
H          6.42686        2.12733       -1.97809
C          6.54072       -0.02756       -2.09297
H          7.40491       -0.02638       -2.76086
C          1.21125       -2.71939       -0.20564
C          0.09460       -3.34627       -0.75565
H         -0.37929       -2.89829       -1.62977
C          1.82302       -3.22589        0.94169
H          2.68242       -2.70374        1.36739
C         -0.40219       -4.50173       -0.15755
H         -1.27407       -5.00010       -0.58889
C          1.31087       -4.37814        1.53600
H          1.78568       -4.77442        2.43663
C          0.20081       -5.02040        0.98916
H         -0.19619       -5.92374        1.45717
