80
Cat108.ts34.5.log	Energy: -2686247.2226231
C         -0.66331       -2.82199       -0.83294
H         -1.39562       -3.07473       -1.60270
H          0.32623       -3.27119       -0.95084
C         -1.14691       -2.55321        0.47961
H         -2.22349       -2.61751        0.66480
H         -0.53376       -2.86930        1.33165
H         -0.97072       -1.11550        0.90861
Ir        -0.51844       -0.63287       -0.66559
C          2.25699       -0.46105        1.81743
O          2.52682       -1.78296       -0.55040
O          2.57968        0.71234       -0.64127
C         -2.63517        1.87410       -2.08209
O         -3.73385        0.30391       -0.15339
O         -2.21857        2.14302        0.48029
P         -2.20176        0.86893       -0.60463
P          1.65166       -0.49447        0.05287
C         -0.17168       -0.32813       -2.48698
O          0.05144       -0.14120       -3.60086
H          2.46399       -1.52666        2.02329
C          3.54675        0.33117        2.00586
H          3.87850        0.24352        3.05237
H          4.36011       -0.02459        1.36057
H          3.39270        1.39918        1.79102
C          1.16070        0.00297        2.76559
H          0.26143       -0.62267        2.69642
H          1.51802       -0.02876        3.80635
H          0.84279        1.03579        2.55850
C          3.85166       -2.04400       -0.34029
C          4.20506       -3.09364        0.50855
H          3.41673       -3.67234        0.99414
C          4.84298       -1.31340       -0.99963
H          4.54955       -0.50139       -1.66435
C          5.54571       -3.40118        0.72148
H          5.83203       -4.21883        1.38473
C          6.18377       -1.61670       -0.78774
H          6.96745       -1.05028       -1.29333
C          6.53090       -2.65565        0.07622
Cl         8.20151       -3.02934        0.34139
C          2.14506        1.94657       -1.00666
C          2.42624        2.38340       -2.30219
H          2.92400        1.70156       -2.99365
C          1.48598        2.79233       -0.11221
H          1.24885        2.44484        0.89424
C          2.06489        3.66587       -2.70213
H          2.27360        4.01239       -3.71532
C          1.12770        4.07627       -0.50861
H          0.61398        4.74797        0.18048
C          1.41570        4.50810       -1.80109
Cl         0.92139        6.09109       -2.30394
H         -2.69215        1.11448       -2.88340
C         -3.98354        2.56997       -1.94955
H         -4.20266        3.12711       -2.87370
H         -4.80029        1.85823       -1.77080
H         -3.96821        3.28662       -1.11521
C         -1.51341        2.85166       -2.40940
H         -0.52767        2.36795       -2.43804
H         -1.69073        3.31663       -3.39104
H         -1.47127        3.65227       -1.65818
C         -4.15156       -0.97674       -0.29591
C         -4.82671       -1.56581        0.77733
H         -5.00199       -0.97383        1.67784
C         -3.94772       -1.70779       -1.47047
H         -3.43791       -1.24592       -2.31643
C         -5.27466       -2.88034        0.69151
H         -5.80234       -3.34470        1.52606
C         -4.38534       -3.02665       -1.55563
H         -4.22434       -3.60540       -2.46659
C         -5.03869       -3.61230       -0.47200
Cl        -5.57506       -5.25628       -0.57744
C         -1.90217        2.04401        1.79323
C         -2.26810        0.94985        2.58323
H         -2.84610        0.13628        2.14678
C         -1.20045        3.10664        2.36996
H         -0.94436        3.96233        1.74372
C         -1.90947        0.90959        3.92781
H         -2.18461        0.05466        4.54763
C         -0.84313        3.07037        3.71298
H         -0.28853        3.89459        4.16425
C         -1.18717        1.96105        4.48580
Cl        -0.69967        1.88440        6.14738
