78
Cat183.ts34.5.log	Energy: -1438578.7105507
C         -1.07793       -3.14929       -0.40469
H         -0.79262       -3.91962        0.31723
H         -2.15771       -3.06463       -0.56452
C         -0.20678       -2.95621       -1.53457
H          0.73560       -3.50856       -1.59991
H         -0.67541       -2.81167       -2.51540
H          0.00253       -1.40119       -1.65806
Ir        -0.01264       -1.32386        0.03010
O         -1.71390        1.29302       -1.25237
C         -3.39038       -0.73745       -0.52464
C         -2.23844        1.02899        1.43179
O          2.02788        0.82322        1.45852
C          3.40068       -0.68170       -0.42522
C          1.80970        1.51193       -1.15265
P          1.77969        0.08884       -0.00434
P         -1.82246        0.10293       -0.10018
C          0.41511       -1.83354        1.80113
O          0.65056       -2.10465        2.90019
C         -2.34646        2.57386       -1.20680
H         -2.35339        2.92352       -0.15942
C         -3.77679        2.52176       -1.71147
H         -4.39427        1.82992       -1.12303
H         -3.80726        2.19432       -2.76208
H         -4.23181        3.52224       -1.65013
C         -1.47901        3.50733       -2.02272
H         -0.45767        3.52841       -1.62186
H         -1.42684        3.16679       -3.06803
H         -1.88842        4.52871       -2.00663
C         -4.09870       -1.47259        0.43577
C         -3.77272       -0.83222       -1.86837
C         -5.58010       -2.32317       -1.27521
C         -4.86326       -1.61596       -2.23982
C         -5.19084       -2.25263        0.06273
H         -3.78676       -1.43984        1.48319
H         -5.73959       -2.81400        0.82299
H         -6.43555       -2.93727       -1.56641
H         -5.15515       -1.67536       -3.29141
H         -3.20385       -0.28260       -2.62175
C         -3.54135        1.43275        1.75598
C         -1.18522        1.38399        2.28429
C         -2.72897        2.53237        3.74718
C         -1.43012        2.13798        3.43011
C         -3.78513        2.17556        2.90912
H         -4.37554        1.15924        1.10602
H         -4.80635        2.47810        3.15358
H         -2.92102        3.11504        4.65164
H         -0.59812        2.40919        4.08482
H         -0.16741        1.06348        2.04726
C          3.26289        1.05480        2.13962
H          4.04809        1.29499        1.40057
C          3.66622       -0.18160        2.91972
H          3.85151       -1.03109        2.24880
H          2.86454       -0.46614        3.61726
H          4.58641        0.00871        3.49242
C          3.04029        2.25389        3.04001
H          2.74306        3.14092        2.46198
H          2.24262        2.03608        3.76663
H          3.95894        2.49469        3.59486
C          3.54616       -2.06164       -0.24254
C          4.48344        0.05938       -0.91827
C          5.83608       -1.94128       -0.99704
C          5.69548       -0.56827       -1.19832
C          4.75880       -2.68801       -0.52146
H          2.68108       -2.62864        0.11757
H          4.86097       -3.76564       -0.37252
H          6.78630       -2.43200       -1.22195
H          6.53350        0.01780       -1.58337
H          4.37565        1.13183       -1.09901
C          1.56662        1.28516       -2.51176
C          2.13015        2.80047       -0.71896
C          2.03453        3.60513       -2.99553
C          2.24459        3.84366       -1.63916
C          1.68645        2.32435       -3.42849
H          1.28171        0.28483       -2.84857
H          1.50069        2.13691       -4.48876
H          2.12640        4.42100       -3.71637
H          2.49729        4.84839       -1.29162
H          2.28671        2.98456        0.34483
