56
Cat146.ts34.5.log	Energy: -1006977.8052712
C         -3.65427        0.60375        0.46778
H         -4.25655       -0.17511        0.94380
H         -3.69551        1.56471        0.99077
C         -3.63460        0.62412       -0.97606
H         -4.12166       -0.18257       -1.53068
H         -3.73641        1.59294       -1.47881
H         -2.10499        0.86090       -1.35524
Ir        -1.71620       -0.16383       -0.07699
O          0.54241        2.30561       -0.13029
C         -1.31872        2.85685        1.78947
C          0.68551        0.89842        2.22028
O          1.42553       -1.02254       -0.44015
C         -0.13950       -2.74118       -1.88113
C          0.44044       -0.10644       -2.82226
P          0.00462       -1.01398       -1.30140
P         -0.46104        1.48845        0.92126
C         -1.92667       -1.79903        0.85654
O         -2.00704       -2.80161        1.43050
C          1.51566        3.24904        0.26793
H          1.40477        4.12269       -0.39839
H          1.33267        3.61107        1.29557
C          2.92618        2.69896        0.15734
H          3.62677        3.50774        0.43325
H          3.06867        1.89846        0.90335
C          3.26123        2.16389       -1.22627
H          3.05805        2.94611       -1.97927
H          2.56404        1.34172       -1.44597
C          4.69761        1.68532       -1.35709
H          5.41384        2.50328       -1.17706
H          4.92283        0.88894       -0.62984
H          4.90102        1.28347       -2.36169
H         -1.94983        2.42024        2.57736
H         -0.62542        3.57735        2.24945
H         -1.96929        3.38418        1.07699
H          1.29430        1.69734        2.67167
H          0.07942        0.41699        3.00134
H          1.32835        0.13493        1.76114
C          2.64786       -1.56899       -0.88790
H          2.49038       -2.56603       -1.33847
H          3.09812       -0.92087       -1.66151
C          3.57450       -1.68754        0.30348
H          4.56543       -2.01641       -0.05549
H          3.71843       -0.68004        0.73171
C          3.05953       -2.63372        1.37893
H          2.96922       -3.64900        0.95305
H          2.03591       -2.33109        1.65358
C          3.94094       -2.66864        2.61598
H          4.96791       -2.98643        2.37264
H          4.00767       -1.67295        3.08375
H          3.54800       -3.36383        3.37294
H          0.71136       -3.07551       -2.49370
H         -0.25147       -3.39765       -1.00591
H         -1.06153       -2.81046       -2.47547
H          0.59661        0.94588       -2.54656
H          1.33604       -0.50941       -3.31936
H         -0.41464       -0.16448       -3.51133
