78
Cat186.ts34.5.log	Energy: -2591876.8176119
C          1.06607       -3.39352        0.71444
H          1.10088       -4.15625       -0.06841
H          2.03161       -3.23035        1.20481
C         -0.13261       -3.32262        1.50781
H         -0.98928       -3.95267        1.25237
H         -0.02830       -3.18067        2.58949
H         -0.51898       -1.76169        1.59512
Ir         0.02857       -1.63448        0.00771
O          1.92719        0.66175        1.91270
C          3.43547       -0.79208        0.23683
C          1.79463        1.32916       -0.61693
O         -1.65253        0.42087       -1.91135
C         -3.36531       -0.78683       -0.11252
C         -1.66835        1.35916        0.65470
P         -1.66336       -0.15120       -0.37061
P          1.73393       -0.14421        0.47063
C         -0.04682       -2.24807       -1.78429
O         -0.08699       -2.59457       -2.88562
C          1.30603        0.21063        3.11130
H          0.26504       -0.07298        2.86881
C          1.29947        1.38525        4.06570
H          0.78165        2.24446        3.61794
H          2.32929        1.68813        4.31073
H          0.78610        1.11906        5.00171
C          2.02681       -1.00328        3.66688
H          2.03234       -1.82388        2.93409
H          3.07217       -0.75988        3.91139
H          1.53180       -1.36419        4.58119
C          4.50305       -0.31293        1.00325
H          4.31443        0.44270        1.76841
C          3.68010       -1.75895       -0.74320
H          2.84422       -2.14903       -1.32980
C          5.79377       -0.79133        0.79932
H          6.63001       -0.42498        1.39722
C          4.96802       -2.23667       -0.96539
H          5.16296       -2.99066       -1.72964
C          6.01842       -1.75042       -0.18792
Cl         7.62257       -2.35038       -0.44646
C          1.48604        1.18356       -1.97282
H          1.21255        0.20060       -2.36246
C          2.10635        2.59797       -0.11832
H          2.33551        2.71310        0.94204
C          1.47489        2.28638       -2.81979
H          1.22477        2.17831       -3.87599
C          2.08449        3.71159       -0.95335
H          2.30814        4.70750       -0.56676
C          1.75763        3.54871       -2.29900
Cl         1.67653        4.93548       -3.33603
C         -2.71965        1.13404       -2.54985
H         -3.31571        1.65807       -1.77998
C         -3.60084        0.15790       -3.30638
H         -4.07291       -0.56815       -2.63158
H         -2.99533       -0.39558       -4.03997
H         -4.39667        0.69556       -3.84317
C         -2.08792        2.15915       -3.46977
H         -1.44816        2.86307       -2.92020
H         -1.46591        1.65311       -4.22326
H         -2.86659        2.73404       -3.99206
C         -3.58393       -2.15823       -0.28478
H         -2.72356       -2.79953       -0.50132
C         -4.45603        0.04065        0.18630
H         -4.30732        1.11148        0.34457
C         -4.86222       -2.69733       -0.18441
H         -5.03498       -3.76576       -0.32279
C         -5.73945       -0.48520        0.29496
H         -6.59112        0.15573        0.52835
C         -5.93500       -1.85348        0.10342
Cl        -7.52805       -2.51193        0.23649
C         -1.17641        2.56634        0.15411
H         -0.85062        2.63085       -0.88502
C         -2.04664        1.28349        2.00219
H         -2.42698        0.34307        2.41076
C         -1.06434        3.68444        0.97737
H         -0.66633        4.62275        0.58855
C         -1.94168        2.39160        2.83304
H         -2.23151        2.33657        3.88348
C         -1.44276        3.58811        2.31317
Cl        -1.26401        4.95725        3.35690
