82
Cat195.ts34.5.log	Energy: -2780629.4219070
C          0.91471       -3.46613        1.66902
H          1.02432       -3.66413        2.73828
H          0.03272       -3.93175        1.22019
C          2.11666       -3.36008        0.88989
H          3.08939       -3.37224        1.38729
H          2.14381       -3.82883       -0.10028
H          1.89464       -2.06184       -0.03329
Ir         1.14201       -1.34905        1.28407
O         -1.11798       -1.37413       -1.33561
O         -2.06896       -2.08037        0.85025
O         -1.48972        0.41300        0.45289
O          2.06043        1.81596        1.77586
O          3.65302        0.66844        0.24126
O          1.33935        1.29077       -0.61442
P          2.05368        0.61086        0.72490
P         -0.86943       -1.11616        0.26610
C          1.14281       -0.88922        3.14226
O          1.13740       -0.58418        4.25091
C         -0.06571       -1.19039       -2.29300
H          0.86300       -0.97922       -1.73682
C         -0.39608       -0.00216       -3.17068
H         -0.52312        0.90238       -2.56027
H         -1.32023       -0.17870       -3.74318
H          0.41879        0.18266       -3.88700
C          0.10325       -2.48896       -3.05114
H          0.35213       -3.30644       -2.35839
H         -0.82302       -2.75454       -3.58413
H          0.91505       -2.40352       -3.78904
C         -3.37317       -2.15711        0.42325
C         -3.69931       -2.74917       -0.79564
H         -2.90619       -3.15761       -1.42066
C         -4.37276       -1.64750        1.25096
H         -4.09301       -1.20439        2.20754
C         -5.02614       -2.77170       -1.21610
H         -5.29729       -3.21516       -2.17552
C         -5.69752       -1.66395        0.83209
H         -6.48457       -1.23490        1.45367
C         -6.01608       -2.21279       -0.40997
Cl        -7.65956       -2.19346       -0.95858
C         -2.75812        0.87486        0.22560
C         -3.35348        1.61283        1.24911
H         -2.78981        1.78389        2.16814
C         -3.44315        0.65352       -0.97119
H         -2.96845        0.08000       -1.76538
C         -4.65293        2.08731        1.10245
H         -5.13406        2.65184        1.90275
C         -4.74782        1.11328       -1.11269
H         -5.30861        0.91202       -2.02655
C         -5.35222        1.81866       -0.07304
Cl        -6.99095        2.35554       -0.23943
C          3.11001        2.76425        2.06949
H          3.75230        2.85577        1.18041
C          3.92056        2.22566        3.22864
H          4.38881        1.26835        2.95862
H          3.27361        2.06136        4.10345
H          4.71559        2.93422        3.50465
C          2.43624        4.08760        2.35029
H          1.85982        4.42275        1.47673
H          1.75223        3.99500        3.20714
H          3.19015        4.85325        2.58527
C          4.16079       -0.35964       -0.50605
C          5.04060       -1.26070        0.09097
H          5.30582       -1.12394        1.14048
C          3.78917       -0.51833       -1.84201
H          3.09204        0.18978       -2.29298
C          5.55448       -2.32287       -0.64614
H          6.24283       -3.03644       -0.19066
C          4.29532       -1.58394       -2.58114
H          4.01058       -1.72231       -3.62539
C          5.17311       -2.48405       -1.97835
Cl         5.79498       -3.81668       -2.89287
C          1.31733        2.63720       -0.86443
C          2.44277        3.29662       -1.35790
H          3.36511        2.73820       -1.52631
C          0.12944        3.33241       -0.63916
H         -0.72984        2.78778       -0.24536
C          2.38236        4.66312       -1.61990
H          3.25422        5.19556       -2.00309
C          0.06472        4.69574       -0.90687
H         -0.85766        5.25262       -0.73508
C          1.19402        5.35635       -1.39226
Cl         1.11959        7.05606       -1.71621
