66
Cat123.ts34.5.log	Energy: -1245038.0307380
C          1.25926       -2.74943       -1.00435
H          1.20395       -3.02295       -2.06134
H          2.27296       -2.66689       -0.60381
C          0.22454       -3.24770       -0.14125
H         -0.62309       -3.78996       -0.56876
H          0.51515       -3.62398        0.84615
H         -0.19972       -1.99142        0.74389
Ir        -0.00806       -1.03330       -0.62770
O          1.41623        1.02510        1.74148
O          2.98671       -0.74307        0.79339
O          2.41741        1.30451       -0.47354
O         -2.80388        0.70837       -1.34186
O         -2.92841       -0.24060        0.94388
O         -1.42815        1.72453        0.41220
P         -1.79496        0.24735       -0.13939
P          1.68035        0.12821        0.37732
C         -0.20415       -0.66527       -2.48096
O         -0.28385       -0.41775       -3.60522
C          0.62873        0.51482        2.78588
H         -0.39084        0.27698        2.44353
H          1.07420       -0.39139        3.23198
H          0.56424        1.29332        3.55879
C          4.18565       -0.13628        1.30499
H          3.95702        0.90818        1.57417
C          5.23887       -0.15734        0.21714
H          4.88156        0.40163       -0.65813
H          5.45370       -1.19303       -0.08872
H          6.17388        0.30190        0.57278
C          4.58328       -0.90030        2.54982
H          3.78801       -0.84714        3.30756
H          4.76110       -1.95979        2.30892
H          5.50415       -0.48282        2.98406
C          1.64412        2.31175       -1.14065
H          0.59112        1.98112       -1.16429
C          2.15848        2.41935       -2.55905
H          2.02845        1.46362       -3.08627
H          3.22822        2.68074       -2.56282
H          1.60763        3.19575       -3.11081
C          1.73721        3.59954       -0.34830
H          1.35515        3.43957        0.66936
H          2.78318        3.93730       -0.28145
H          1.14611        4.39309       -0.83034
C         -3.59090       -0.25363       -2.00659
H         -2.97858       -1.10648       -2.34634
H         -4.39330       -0.62663       -1.34936
H         -4.03660        0.23620       -2.88243
C         -2.81863       -1.38539        1.78608
H         -1.74674       -1.62243        1.91623
C         -3.49764       -2.56611        1.12261
H         -3.01743       -2.78210        0.15664
H         -4.56268       -2.34870        0.94649
H         -3.42539       -3.46460        1.75388
C         -3.41391       -1.01692        3.12873
H         -2.88051       -0.16086        3.56752
H         -4.47331       -0.73990        3.01697
H         -3.34725       -1.86376        3.82779
C         -2.42541        2.70709        0.73962
H         -3.41398        2.21977        0.72521
C         -2.38340        3.79596       -0.31155
H         -2.58026        3.36535       -1.30280
H         -1.39285        4.27583       -0.32477
H         -3.14117        4.56646       -0.10342
C         -2.12726        3.19970        2.13943
H         -2.19236        2.37198        2.86028
H         -1.11124        3.62084        2.18635
H         -2.84441        3.97856        2.43877
