90
Cat180.ts34.5.log	Energy: -1442235.4972574
C          1.69451       -3.00182        0.40778
H          2.04869       -3.54199       -0.47446
H          2.48241       -2.78684        1.13602
C          0.38802       -3.34915        0.91069
H         -0.23672       -4.04543        0.34442
H          0.26831       -3.47460        1.99353
H         -0.30509       -1.96130        1.22888
Ir         0.41757       -1.35645       -0.16975
O          2.38781       -0.14142        2.35932
O          3.04617        0.77429        0.21233
O          0.95673        1.63686        1.17304
O         -1.33220        1.07936       -1.57946
O         -2.57805       -1.04730       -1.62680
O         -2.53712        0.16721        0.49346
P         -1.49381       -0.26151       -0.69158
P          1.68017        0.20538        0.90248
C          0.78148       -1.54046       -2.02609
O          1.01258       -1.64047       -3.15191
C          1.65230       -0.75392        3.41268
H          0.81404       -1.32176        2.96541
C          1.08144        0.31464        4.32774
H          0.41705        0.98886        3.76851
H          1.89286        0.91635        4.76562
H          0.50432       -0.13985        5.14717
C          2.58191       -1.71226        4.12744
H          2.95886       -2.47892        3.43506
H          3.44527       -1.16839        4.54057
H          2.06107       -2.21777        4.95423
C          4.20317       -0.02218        0.00123
H          5.05771        0.66082        0.13779
H          4.27654       -0.79413        0.78512
C          4.24073       -0.63704       -1.38379
H          5.21197       -1.15253       -1.49090
H          3.46575       -1.41647       -1.45768
C          4.05826        0.37589       -2.50476
H          4.81236        1.17665       -2.39614
H          3.07822        0.86400       -2.37685
C          4.15136       -0.24122       -3.89041
H          5.12692       -0.72926       -4.05005
H          3.36703       -0.99938       -4.03584
H          4.02717        0.51791       -4.67770
C          1.66147        2.78019        1.65693
H          0.98883        3.25848        2.38849
H          2.57115        2.46062        2.18893
C          1.99231        3.73514        0.52963
H          2.49596        4.61587        0.96716
H          2.72310        3.24653       -0.13453
C          0.77441        4.16634       -0.27332
H          0.04643        4.65643        0.39917
H          0.27482        3.26272       -0.65693
C          1.11867        5.09592       -1.42470
H          1.60721        6.01813       -1.06988
H          1.80936        4.60930       -2.13210
H          0.22135        5.39362       -1.98863
C         -2.44100        1.70192       -2.25798
H         -3.37677        1.34164       -1.79874
C         -2.40470        1.29672       -3.71721
H         -2.48893        0.20635       -3.81092
H         -1.45663        1.61784       -4.17516
H         -3.23481        1.76462       -4.26799
C         -2.32365        3.19618       -2.05540
H         -2.32057        3.44857       -0.98659
H         -1.39129        3.57237       -2.50185
H         -3.17024        3.71191       -2.53282
C         -2.80444       -2.44327       -1.49502
H         -3.39407       -2.72313       -2.38157
H         -1.83436       -2.96934       -1.54477
C         -3.53846       -2.81226       -0.22063
H         -3.68130       -3.90787       -0.22343
H         -2.88568       -2.59378        0.64281
C         -4.87413       -2.10601       -0.04323
H         -5.54246       -2.37504       -0.88056
H         -4.70328       -1.02092       -0.11710
C         -5.54450       -2.43049        1.28120
H         -5.73343       -3.51128        1.38814
H         -4.91056       -2.12265        2.12889
H         -6.51001       -1.91255        1.38559
C         -2.14873        0.57818        1.79453
H         -2.88965        0.13970        2.48378
H         -1.16325        0.14785        2.03679
C         -2.12107        2.08558        1.92265
H         -1.75636        2.33172        2.93639
H         -1.36319        2.47465        1.22429
C         -3.46623        2.75333        1.67975
H         -4.20393        2.36625        2.40509
H         -3.83811        2.44989        0.68693
C         -3.40058        4.26905        1.77050
H         -3.05932        4.59654        2.76597
H         -2.69370        4.68248        1.03271
H         -4.38155        4.73255        1.58597
