90
Cat196.ts34.5.log	Energy: -1537187.4296384
C          1.39861        0.10154        3.58146
H          1.45443       -0.80598        4.18906
H          2.35065        0.63823        3.51615
C          0.19244        0.88928        3.69588
H         -0.64399        0.50513        4.28656
H          0.30001        1.97701        3.79310
H         -0.14382        1.27898        2.21923
Ir         0.30808       -0.27923        1.76321
O          2.05417        2.21925        0.13131
C          3.68391        0.31312        0.96576
C          2.01627        0.01143       -1.40554
O         -1.22782        0.23364       -1.10162
C         -2.39704       -1.95937        0.23852
C         -2.90917        0.82567        1.06952
P         -1.55285       -0.29546        0.43222
P          1.96040        0.56738        0.36271
C          0.34980       -2.16047        1.95574
O          0.36641       -3.31474        2.03353
C          0.88019        2.97596       -0.14830
H          0.00564        2.30209       -0.10552
C          0.98234        3.55674       -1.54562
H          1.11764        2.75847       -2.28874
H          1.83947        4.24404       -1.62007
H          0.06645        4.11056       -1.80242
C          0.74005        4.03771        0.92417
H          0.62186        3.57002        1.91245
H          1.63966        4.67185        0.95106
H         -0.13114        4.68331        0.73418
H          3.70143       -0.72122        1.34033
H          3.75034        0.96697        1.85104
C          4.82959        0.56097        0.02867
C          5.01262        1.79857       -0.60485
H          4.29263        2.59709       -0.41808
C          5.75550       -0.45871       -0.22344
H          5.62139       -1.43153        0.25661
C          6.08234        1.99935       -1.47451
H          6.20576        2.96929       -1.96310
C          6.83001       -0.25623       -1.08701
H          7.53947       -1.06754       -1.26825
C          6.99545        0.97400       -1.72070
H          7.83509        1.13516       -2.40111
H          2.75329        0.65060       -1.91353
H          1.01071        0.25535       -1.78056
C          2.33151       -1.43922       -1.60607
C          1.42959       -2.43512       -1.21002
H          0.48497       -2.13189       -0.76048
C          3.54269       -1.83476       -2.18698
H          4.25514       -1.07246       -2.51004
C          1.73680       -3.78441       -1.36126
H          1.02499       -4.54112       -1.02286
C          3.84895       -3.18430       -2.35096
H          4.80014       -3.46997       -2.80726
C          2.95091       -4.16495       -1.93160
H          3.19511       -5.22321       -2.05171
C         -1.98633        0.08246       -2.30796
H         -3.03393       -0.13705       -2.05102
C         -1.40283       -1.05468       -3.12734
H         -1.39695       -2.00446       -2.57538
H         -0.36185       -0.83520       -3.40820
H         -1.98437       -1.19853       -4.05070
C         -1.93343        1.39778       -3.05538
H         -2.35553        2.20887       -2.44985
H         -0.89210        1.65176       -3.30535
H         -2.50641        1.32776       -3.99182
H         -2.21709       -2.42466        1.21847
H         -1.78049       -2.52120       -0.47955
C         -3.85604       -2.04294       -0.09615
C         -4.31453       -2.23214       -1.40671
H         -3.59410       -2.36405       -2.21584
C         -4.81348       -1.94503        0.92470
H         -4.48194       -1.85607        1.96316
C         -5.67727       -2.26411       -1.69420
H         -6.00770       -2.40941       -2.72551
C         -6.17730       -1.97383        0.64168
H         -6.90109       -1.88828        1.45555
C         -6.61596       -2.12013       -0.67327
H         -7.68444       -2.14149       -0.89911
H         -2.42972        1.37280        1.89099
H         -3.67218        0.17434        1.51829
C         -3.53947        1.79037        0.11248
C         -4.65388        1.44069       -0.66095
H         -5.08307        0.44000       -0.56900
C         -3.02426        3.08690       -0.00912
H         -2.16525        3.37722        0.60075
C         -5.22284        2.35787       -1.54202
H         -6.09147        2.06497       -2.13680
C         -3.59596        4.00787       -0.88450
H         -3.17977        5.01555       -0.96008
C         -4.69631        3.64416       -1.65961
H         -5.14648        4.36269       -2.34845
