98
Cat132.ts34.5.log	Energy: -1914482.2030223
C          0.72076       -3.17118       -0.47521
H          0.68214       -3.65108       -1.45792
H          1.68376       -3.29749        0.03285
C         -0.48901       -3.21239        0.31946
H         -1.40785       -3.61627       -0.11970
H         -0.39910       -3.48785        1.37628
H         -0.61188       -1.79242        0.91821
Ir        -0.09997       -1.19399       -0.56703
O          1.16314        0.74625        1.91062
C          3.12358       -0.89588        1.08592
C          2.18224        1.31276       -0.63062
O         -2.10626        0.91493       -2.06890
C         -3.53903       -0.60291       -0.32074
C         -1.85715        1.64849        0.60070
P         -1.90977        0.24053       -0.58945
P          1.58959       -0.01857        0.50941
C          0.01753       -1.07517       -2.44418
O          0.11455       -1.02900       -3.59840
C          2.11376        1.29769        2.78270
H          2.50297        0.52694        3.47100
H          2.96240        1.74951        2.24564
H          1.61012        2.08257        3.36719
C          4.45128       -0.61233        0.70377
O          4.67596        0.56026        0.08880
C          5.87242        0.78272       -0.59587
H          5.73533        1.71609       -1.15796
H          6.72971        0.89878        0.09122
H          6.09288       -0.03340       -1.30581
C          2.92815       -2.00459        1.93708
O          1.68269       -2.15396        2.43867
C          1.41927       -3.22194        3.30105
H          0.36886       -3.12725        3.60376
H          2.05319       -3.18506        4.20443
H          1.56040       -4.19733        2.80360
C          3.97122       -2.88118        2.25945
H          3.79861       -3.75021        2.89226
C          5.49984       -1.49367        1.00445
H          6.51556       -1.27632        0.67559
C          5.24512       -2.62666        1.76466
H          6.06198       -3.31215        2.00280
C          1.99956        2.69591       -0.46456
O          1.54835        3.13706        0.73032
C          1.69286        4.48447        1.05829
H          1.38942        4.58364        2.10833
H          2.73847        4.82251        0.94244
H          1.04076        5.13968        0.45520
C          2.70853        0.87014       -1.86330
O          2.96358       -0.44875       -1.92925
C          3.34995       -1.03449       -3.13962
H          3.41330       -2.11354       -2.95032
H          4.33836       -0.66872       -3.47163
H          2.60377       -0.85407       -3.93011
C          2.98142        1.74891       -2.91274
H          3.36510        1.38017       -3.86316
C          2.28938        3.58903       -1.50908
H          2.13992        4.65949       -1.37324
C          2.76081        3.10959       -2.72333
H          2.96868        3.80964       -3.53606
C         -3.34894        1.40835       -2.49640
H         -3.99339        0.58354       -2.84385
H         -3.87430        1.96633       -1.70453
H         -3.15930        2.09179       -3.33668
C         -4.49681       -0.30114        0.66783
O         -4.41073        0.89999        1.26215
C         -5.08058        1.13933        2.46410
H         -4.70653        2.10147        2.83840
H         -6.17407        1.20873        2.32389
H         -4.86436        0.35590        3.21115
C         -3.76695       -1.75226       -1.11114
O         -2.96436       -1.88576       -2.17549
C         -2.86183       -3.10665       -2.84889
H         -2.03358       -2.99338       -3.55947
H         -3.78565       -3.34682       -3.40432
H         -2.63297       -3.93515       -2.15684
C         -4.78364       -2.66463       -0.80719
H         -4.92388       -3.56264       -1.40823
C         -5.51818       -1.20966        0.98193
H         -6.23624       -0.98236        1.76923
C         -5.63635       -2.38870        0.25575
H         -6.43529       -3.09268        0.50161
C         -1.76052        3.01118        0.26546
O         -1.84229        3.34341       -1.03756
C         -1.63153        4.66209       -1.43807
H         -1.68561        4.66531       -2.53446
H         -2.40035        5.34931       -1.04082
H         -0.63457        5.02768       -1.13680
C         -1.74341        1.29851        1.95756
O         -1.91589       -0.01035        2.22309
C         -1.40219       -0.55912        3.40445
H         -1.59574       -1.63845        3.34591
H         -1.91467       -0.16463        4.29977
H         -0.31758       -0.38376        3.47144
C         -1.52664        2.25181        2.95450
H         -1.42200        1.95307        3.99702
C         -1.59233        3.98050        1.26543
H         -1.54700        5.03711        1.00555
C         -1.46711        3.59228        2.59342
H         -1.32192        4.35384        3.36418
