108
Cat103.ts34.5.log	Energy: -1918722.7013902
C         -0.51890       -0.78898       -2.81926
H         -0.08303       -1.66312       -3.30918
H         -1.57702       -0.62860       -3.03985
C          0.31613        0.35649       -2.62398
H          1.37220        0.31476       -2.91239
H         -0.14377        1.34195       -2.78073
H          0.30923        0.77462       -1.14135
Ir         0.04072       -0.83743       -0.72223
C         -1.44265        1.09577        1.95157
C         -2.41376        1.40407       -0.88118
C         -3.34944       -0.73094        0.88575
C          2.67443       -2.16733        1.30116
C          3.56494       -0.52990       -0.79521
C          2.19963        0.92246        1.34728
P          2.11008       -0.64837        0.36589
P         -1.80767        0.17527        0.36144
C         -0.02696       -2.69867       -0.60550
O         -0.04376       -3.86077       -0.58090
H         -0.55158        1.68538        1.69415
C         -2.53909        2.01427        2.46724
H         -2.16273        2.59053        3.32981
H         -2.89027        2.72082        1.70513
H         -3.41041        1.43533        2.80949
C         -1.05019        0.07441        3.01020
H         -0.26025       -0.59676        2.64864
H         -0.67926        0.60244        3.90354
H         -1.91090       -0.54052        3.31611
C         -3.22932        0.95213       -1.94418
O         -3.64467       -0.32563       -1.85381
C         -4.45423       -0.87934       -2.84630
H         -4.65380       -1.91350       -2.53864
H         -5.41466       -0.34200       -2.94182
H         -3.95021       -0.88698       -3.82932
C         -1.94612        2.72611       -0.96436
O         -1.09167        3.14731        0.00231
C         -1.04727        4.50843        0.32232
H         -0.51785        4.58645        1.28049
H         -2.06152        4.93036        0.42778
H         -0.49516        5.10098       -0.42995
C         -2.31713        3.57633       -2.01606
H         -1.94694        4.60106       -2.04822
C         -3.59617        1.78709       -3.00308
H         -4.23324        1.41593       -3.80505
C         -3.14251        3.10267       -3.02658
H         -3.42735        3.76080       -3.85057
C         -4.63448       -0.14748        0.82339
O         -4.69320        1.15654        0.49378
C         -5.91306        1.75556        0.17981
H         -5.67607        2.76516       -0.18109
H         -6.44527        1.20870       -0.61831
H         -6.57662        1.83496        1.05951
C         -3.27678       -2.06736        1.33354
O         -2.05341       -2.59551        1.50724
C         -1.93169       -3.93111        1.91196
H         -0.85882       -4.14474        1.95734
H         -2.39143       -4.62028        1.18409
H         -2.38123       -4.09617        2.90692
C         -4.43802       -2.80857        1.60773
H         -4.36797       -3.84491        1.93255
C         -5.79509       -0.88144        1.09487
H         -6.77646       -0.41363        1.02706
C         -5.68312       -2.21268        1.47420
H         -6.58441       -2.79198        1.68925
H          2.71513       -2.82229        0.41180
C          4.07332       -2.09729        1.89573
H          4.37837       -3.09698        2.24783
H          4.81372       -1.76212        1.15589
H          4.10456       -1.40886        2.75062
C          1.64499       -2.77425        2.24431
H          0.62309       -2.56918        1.89692
H          1.78320       -3.86639        2.29297
H          1.73929       -2.37265        3.25928
C          4.62704        0.38945       -0.67100
O          4.73727        1.02981        0.50751
C          5.57702        2.13763        0.63385
H          5.37649        2.56535        1.62495
H          6.64405        1.85882        0.57085
H          5.36356        2.90245       -0.13355
C          3.58398       -1.37155       -1.92897
O          2.70671       -2.38689       -1.92536
C          2.46644       -3.13124       -3.08417
H          1.62691       -3.79729       -2.84834
H          3.34259       -3.74039       -3.36883
H          2.18895       -2.48323       -3.93320
C          4.49038       -1.17136       -2.97935
H          4.46581       -1.80998       -3.86158
C          5.54007        0.59815       -1.71282
H          6.33699        1.33431       -1.61217
C          5.44712       -0.17077       -2.86724
H          6.15914       -0.01105       -3.68060
C          2.15273        2.14090        0.63513
O          2.23495        2.03816       -0.70450
C          2.10924        3.17288       -1.51039
H          2.20654        2.82695       -2.54685
H          1.12410        3.64982       -1.38038
H          2.90450        3.91186       -1.30790
C          2.16798        1.00590        2.74886
O          2.23548       -0.15620        3.43099
C          2.20680       -0.14621        4.82776
H          2.27602       -1.19434        5.14771
H          1.26650        0.28065        5.21703
H          3.05919        0.41265        5.25210
C          2.06626        2.23906        3.40996
H          2.02983        2.28207        4.49720
C          2.06621        3.37546        1.28297
H          2.03866        4.30012        0.70866
C          2.01559        3.41337        2.67185
H          1.94072        4.37377        3.18759
