90
Cat144.ts34.5.log	Energy: -1537183.2688553
C         -0.76123       -2.81499       -1.41571
H         -1.07522       -3.02112       -2.44281
H          0.12632       -3.38083       -1.11138
C         -1.79898       -2.61355       -0.43521
H         -2.84581       -2.56298       -0.74823
H         -1.69219       -3.08597        0.54891
H         -1.27478       -1.38254        0.42140
Ir        -0.78943       -0.69550       -1.02283
O          1.39324       -0.11912        1.46010
C          2.51480       -1.87818       -0.39582
C          2.22911        1.03716       -0.92282
O         -0.61761        2.54240       -0.37673
C         -3.12392        1.96129       -1.27637
C         -2.28718        1.39312        1.45752
P         -1.69577        1.26778       -0.31001
P          1.34750       -0.42733       -0.17585
C         -0.95654       -0.18681       -2.84109
O         -1.06731        0.14984       -3.94316
C          2.51129       -0.27140        2.30102
H          2.66967       -1.33441        2.55656
H          3.43426        0.13865        1.86551
H          2.29762        0.27523        3.23115
H          2.36064       -2.51137        0.49235
H          2.06022       -2.41919       -1.23827
C          3.96978       -1.65513       -0.67339
C          4.39863       -1.42240       -1.98919
H          3.66819       -1.42743       -2.80302
C          4.93327       -1.68521        0.33827
H          4.62143       -1.89221        1.36482
C          5.74386       -1.20135       -2.26562
H          6.06471       -1.02377       -3.29493
C          6.29007       -1.46069        0.08147
C          7.28188       -1.47049        1.20817
H          7.09636       -0.63297        1.90017
H          7.21132       -2.39873        1.79615
H          8.31338       -1.37909        0.84038
C          6.68540       -1.21334       -1.23675
H          7.74143       -1.03998       -1.46077
H          2.73870        0.66747       -1.82500
H          1.39664        1.67777       -1.24434
C          3.15206        1.80938       -0.03203
C          2.61145        2.64686        0.95295
H          1.52589        2.72626        1.03666
C          4.54328        1.70594       -0.13689
H          4.97291        1.05994       -0.90630
C          3.45005        3.33327        1.82605
H          3.02160        3.97482        2.60067
C          5.39921        2.39833        0.72607
C          6.88949        2.30120        0.56708
H          7.17042        1.41245       -0.01502
H          7.28705        3.18332        0.03786
H          7.39847        2.25364        1.54177
C          4.83379        3.20545        1.72055
H          5.48587        3.74703        2.41189
C         -0.94720        3.87848       -0.09307
H         -1.48101        4.35636       -0.93192
H         -1.56031        3.98025        0.81965
H         -0.00434        4.42226        0.06613
H         -3.26256        3.02068       -1.01219
H         -2.81326        1.91312       -2.33187
C         -4.39731        1.20676       -1.03678
C         -4.56754       -0.09855       -1.51655
H         -3.76728       -0.56128       -2.09796
C         -5.42626        1.78538       -0.28651
H         -5.30580        2.81081        0.07860
C         -5.73561       -0.79777       -1.22976
H         -5.86259       -1.81559       -1.60667
C         -6.60778        1.09557        0.01071
C         -7.67416        1.73206        0.85452
H         -7.45009        1.61295        1.92804
H         -7.75520        2.81118        0.65720
H         -8.65786        1.27615        0.67302
C         -6.74648       -0.21036       -0.46989
H         -7.66076       -0.76974       -0.25321
H         -1.44432        1.86960        1.98170
H         -3.14798        2.07774        1.49670
C         -2.61061        0.08077        2.10329
C         -3.89701       -0.46682        2.05712
H         -4.70598        0.08079        1.57049
C         -1.58461       -0.65553        2.70217
H         -0.56941       -0.25043        2.69240
C         -4.13911       -1.72195        2.60800
H         -5.14588       -2.14454        2.56342
C         -1.81095       -1.92182        3.25235
C         -0.66846       -2.68789        3.85468
H         -0.27860       -2.18459        4.75420
H         -0.96694       -3.70599        4.14197
H          0.16848       -2.76318        3.14190
C         -3.10572       -2.44712        3.20067
H         -3.30450       -3.43707        3.62091
