92
Cat107.ts34.5.log	Energy: -1631564.7195957
C         -0.27481       -2.00954       -2.69049
H         -0.22887       -3.07321       -2.44008
H         -1.16008       -1.73679       -3.27524
C          0.97626       -1.36041       -2.99811
H          1.91045       -1.91008       -2.85207
H          1.01200       -0.69023       -3.86579
H          0.89107        0.00293       -2.23694
Ir         0.18538       -0.81482       -0.94939
C         -1.80212        1.70509       -2.52103
O         -3.21332       -0.06088       -1.24702
O         -1.79099        1.56320        0.21194
C          1.09035        1.33347        1.82613
O          2.64009       -0.75479        1.30846
O          2.69613        1.18084       -0.45230
P          1.64192        0.24918        0.43305
P         -1.66433        0.53059       -1.09861
C          0.02119       -2.25546        0.28177
O         -0.11536       -3.10398        1.05204
H         -1.54993        1.04356       -3.37215
C         -3.17952        2.30771       -2.75497
H         -3.15203        2.97420       -3.63189
H         -3.93532        1.53224       -2.93001
H         -3.50851        2.90529       -1.89250
C         -0.71200        2.76238       -2.40079
H          0.26668        2.31128       -2.17910
H         -0.62249        3.33174       -3.33858
H         -0.94658        3.47413       -1.59415
C         -3.82024       -1.10494       -0.59452
C         -3.21787       -2.35534       -0.48643
H         -2.24096       -2.50930       -0.93980
C         -5.11125       -0.86920       -0.09119
C         -5.79643        0.44226       -0.31684
H         -5.21136        1.28233        0.08248
H         -5.93120        0.63303       -1.39336
H         -6.78528        0.45258        0.16078
C         -3.86124       -3.37769        0.20743
H         -3.37127       -4.34866        0.30799
C         -5.73385       -1.91482        0.59608
H         -6.73399       -1.74577        1.00461
C         -5.11687       -3.15421        0.76542
H         -5.62714       -3.94808        1.31543
C         -2.83329        1.86450        1.04089
C         -3.45825        3.10649        0.89919
H         -3.11178        3.77658        0.11071
C         -3.20390        0.98053        2.06778
C         -2.50273       -0.32439        2.29736
H         -3.21240       -1.16510        2.27666
H         -1.73432       -0.52125        1.53963
H         -2.01320       -0.32850        3.28462
C         -4.49171        3.47572        1.75323
H         -4.97684        4.44697        1.63287
C         -4.25797        1.37268        2.90279
H         -4.57175        0.68860        3.69618
C         -4.90336        2.59635        2.75422
H         -5.72145        2.86790        3.42498
H          0.09543        0.90182        2.02891
C          1.91721        1.28008        3.10508
H          1.40265        1.86284        3.88580
H          2.04426        0.25276        3.46927
H          2.91453        1.71982        2.96245
C          0.88128        2.76205        1.33330
H          0.31691        2.79189        0.39266
H          0.29798        3.32285        2.07925
H          1.84259        3.27924        1.19638
C          3.24022       -1.87794        0.79797
C          3.80510       -1.88908       -0.47701
H          3.75846       -0.98961       -1.09257
C          3.29422       -2.99997        1.63717
C          2.68448       -2.95079        3.00378
H          3.11726       -2.13604        3.60481
H          1.60059       -2.76830        2.94250
H          2.84253       -3.89724        3.53810
C          4.42463       -3.04625       -0.94391
H          4.86749       -3.05577       -1.94258
C          3.92513       -4.14462        1.14209
H          3.97361       -5.03154        1.77959
C          4.48193       -4.17863       -0.13533
H          4.96568       -5.08925       -0.49543
C          3.76633        1.93627       -0.04487
C          4.67894        1.49737        0.91470
H          4.53341        0.53158        1.39585
C          3.94096        3.16337       -0.70827
C          2.96301        3.59756       -1.75468
H          2.83331        2.82026       -2.52293
H          1.96755        3.77319       -1.31805
H          3.29308        4.52441       -2.24275
C          5.76722        2.30184        1.24878
H          6.47677        1.95533        2.00364
C          5.04386        3.94392       -0.35460
H          5.19011        4.90188       -0.86118
C          5.95134        3.52900        0.61891
H          6.80417        4.16059        0.87674
