82
Cat126.ts34.5.log	Energy: -1627241.6397517
C          1.45888       -1.63009        3.09144
H          1.61323       -2.71209        3.12644
H          2.35040       -1.03210        3.30097
C          0.19329       -1.12936        3.55368
H         -0.60105       -1.83050        3.82276
H          0.19388       -0.22447        4.17072
H         -0.27665       -0.05327        2.43972
Ir         0.37718       -1.08859        1.29483
O          2.53290        1.26473        2.15582
C          3.41923        0.03143       -0.13668
C          1.38282        2.01846       -0.17522
O         -0.58478       -0.51037       -1.74233
C         -2.55815       -1.85367       -0.50236
C         -2.23247        0.93235       -0.03390
P         -1.25875       -0.60343       -0.22485
P          1.92002        0.55374        0.77387
C          0.53963       -2.82787        0.56043
O          0.65077       -3.89017        0.11462
C          3.69300        2.05896        2.15466
H          4.58841        1.47118        1.89246
H          3.61570        2.90750        1.45178
H          3.81719        2.45730        3.17242
C          4.23656        0.92382       -0.85221
H          3.96108        1.97925       -0.91970
C          3.79293       -1.31310       -0.09261
H          3.14901       -2.01663        0.44160
C          5.38350        0.48399       -1.49245
H          6.02013        1.16830       -2.05654
C          4.94700       -1.77041       -0.72522
H          5.20007       -2.82935       -0.67066
C          5.75115       -0.86920       -1.43244
O          6.87840       -1.20710       -2.08506
C          7.29442       -2.54453       -2.06874
H          6.54611       -3.21271       -2.52986
H          8.22164       -2.59245       -2.65363
H          7.50049       -2.89778       -1.04309
C          1.18424        1.93553       -1.56310
H          1.49524        1.03705       -2.09957
C          0.96894        3.17700        0.48380
H          1.10611        3.25356        1.56560
C          0.56676        2.96440       -2.25434
H          0.39731        2.90522       -3.33127
C          0.34717        4.22092       -0.20161
H          0.02160        5.10307        0.35012
C          0.12085        4.10861       -1.57609
O         -0.51023        5.03598       -2.32461
C         -1.14752        6.10107       -1.67929
H         -0.43506        6.74427       -1.13265
H         -1.63044        6.70027       -2.46178
H         -1.92221        5.74290       -0.97808
C         -1.28169       -0.13188       -2.90130
H         -2.20967       -0.71472       -3.03715
H         -1.52816        0.94287       -2.89019
H         -0.61956       -0.33095       -3.75680
C         -3.76663       -1.83024        0.21044
H         -3.98123       -1.00015        0.88844
C         -2.30737       -2.93452       -1.35119
H         -1.36365       -2.98170       -1.89978
C         -4.69485       -2.84895        0.06912
H         -5.63821       -2.83965        0.61835
C         -3.23428       -3.96443       -1.50399
H         -3.00290       -4.79215       -2.17462
C         -4.43744       -3.92692       -0.79077
O         -5.39634       -4.87078       -0.86577
C         -5.18552       -5.98199       -1.69018
H         -4.29683       -6.56021       -1.38122
H         -6.07407       -6.61885       -1.59399
H         -5.06818       -5.69231       -2.74963
C         -3.31399        1.24834       -0.87884
H         -3.64587        0.53390       -1.63465
C         -1.89717        1.84590        0.96386
H         -1.07281        1.60202        1.63722
C         -3.99092        2.44968       -0.75389
H         -4.82447        2.70447       -1.41089
C         -2.58343        3.04829        1.11896
H         -2.28385        3.73209        1.91310
C         -3.62174        3.36759        0.24159
O         -4.31930        4.52117        0.27851
C         -4.06900        5.42665        1.31737
H         -3.03581        5.81639        1.28474
H         -4.76618        6.26305        1.18125
H         -4.24313        4.97131        2.30779
