82
Cat193.ts34.5.log	Energy: -1876320.7014492
C          1.24734       -3.15276       -1.57887
H          1.00092       -3.44029       -2.60414
H          2.31825       -3.09484       -1.36679
C          0.35814       -3.58733       -0.54097
H         -0.57521       -4.09701       -0.79426
H          0.79344       -3.94160        0.40064
H          0.09388       -2.30719        0.35856
Ir         0.12126       -1.37873       -1.04579
O          2.07530        0.39368        1.18569
O          3.38006       -0.93962       -0.56348
O          2.29267        1.20453       -1.12216
O         -2.34851        0.82686       -1.30883
O         -3.07192       -1.14457        0.01919
O         -1.50808        0.54719        1.08827
P         -1.69243       -0.27281       -0.34382
P          1.92440       -0.20447       -0.32389
C         -0.31301       -0.95160       -2.85013
O         -0.56775       -0.64675       -3.93101
C          1.39448       -0.17479        2.31155
H          0.41803       -0.54650        1.96140
C          1.17014        0.94773        3.29857
H          0.58764        1.75315        2.83068
H          2.13077        1.36139        3.64225
H          0.61356        0.58306        4.17450
C          2.20094       -1.32881        2.87125
H          2.30833       -2.12653        2.11995
H          3.20655       -0.99297        3.16629
H          1.70050       -1.75727        3.75276
C          4.59190       -0.47858       -0.10793
C          5.25387       -1.22046        0.86973
H          4.78136       -2.12315        1.25934
C          5.18315        0.66776       -0.64165
H          4.65816        1.22612       -1.41563
C          6.50278       -0.81378        1.33084
H          7.04087       -1.37911        2.09378
C          6.42976        1.08056       -0.17839
H          6.91459        1.97322       -0.57782
C          7.07373        0.33814        0.80380
F          8.26769        0.73501        1.24529
C          1.55806        2.34956       -0.97956
C          0.49793        2.61464       -1.84756
H          0.22873        1.87783       -2.60462
C          1.91677        3.27470        0.00360
H          2.74131        3.03329        0.67532
C         -0.20177        3.81429       -1.73779
H         -1.04194        4.04327       -2.39456
C          1.22434        4.47805        0.10990
H          1.48515        5.22081        0.86599
C          0.17130        4.72973       -0.76262
F         -0.51533        5.86931       -0.63836
C         -3.74350        1.04885       -1.60993
H         -4.34148        0.70703       -0.75191
C         -4.10081        0.23723       -2.83651
H         -3.96250       -0.83586       -2.64236
H         -3.45857        0.52029       -3.68397
H         -5.15113        0.40609       -3.11700
C         -3.91953        2.53917       -1.78816
H         -3.60872        3.07672       -0.88159
H         -3.31548        2.89885       -2.63478
H         -4.97473        2.77374       -1.99097
C         -2.97608       -2.39610        0.56398
C         -3.44208       -3.48516       -0.17150
H         -3.86508       -3.31183       -1.16219
C         -2.41545       -2.58675        1.82830
H         -2.05060       -1.72439        2.38942
C         -3.35530       -4.76996        0.35692
H         -3.71412       -5.63948       -0.19659
C         -2.31773       -3.87179        2.35672
H         -1.88232       -4.05014        3.34153
C         -2.78847       -4.94803        1.61427
F         -2.69641       -6.17729        2.11863
C         -2.30982        1.60213        1.45153
C         -3.60756        1.40400        1.92157
H         -4.00719        0.39162        1.99736
C         -1.78163        2.88664        1.34712
H         -0.76525        3.00441        0.97286
C         -4.38384        2.50612        2.27624
H         -5.40368        2.38706        2.64636
C         -2.55261        3.99042        1.69650
H         -2.16369        5.00537        1.59711
C         -3.84881        3.78405        2.15671
F         -4.59720        4.83393        2.49092
