82
Cat191.ts34.5.log	Energy: -1627339.5999725
C         -1.03828       -3.39374       -0.98849
H         -0.93314       -4.25846       -0.32788
H         -2.06275       -3.18289       -1.30743
C          0.02975       -3.14179       -1.91681
H          0.94486       -3.73741       -1.86600
H         -0.23323       -2.85067       -2.94025
H          0.28344       -1.57485       -1.81354
Ir         0.01960       -1.70145       -0.16069
O         -1.63088        1.23284       -0.85530
O         -3.04110       -0.89017       -1.13522
O         -2.43441        0.07016        1.18277
O          1.67245        1.04378        0.96042
O          3.06480       -1.09576        0.91568
O          2.46395        0.19696       -1.24117
P          1.80157       -0.36687        0.14888
P         -1.75488       -0.29719       -0.27144
C          0.24242       -2.55252        1.53267
O          0.36118       -3.05665        2.56013
C         -0.76383        1.54085       -1.95612
H          0.20048        1.03349       -1.78335
C         -0.55330        3.03847       -1.93203
H         -0.14405        3.35397       -0.96178
H         -1.50393        3.56931       -2.09509
H          0.15503        3.33775       -2.71818
C         -1.34868        1.04188       -3.26317
H         -1.49307       -0.04795       -3.23939
H         -2.32395        1.51099       -3.46497
H         -0.66957        1.28003       -4.09523
C         -4.34992       -0.48060       -1.12821
C         -4.71888        0.84199       -1.38064
H         -3.94709        1.58818       -1.56415
C         -5.31983       -1.45046       -0.87603
H         -4.99829       -2.47659       -0.68769
C         -6.06583        1.19169       -1.34207
H         -6.35181        2.23148       -1.51635
C         -6.66477       -1.09023       -0.85189
H         -7.42264       -1.85084       -0.64892
C         -7.04290        0.23291       -1.07656
H         -8.09720        0.51622       -1.04681
C         -3.43820        0.95611        1.49957
C         -4.63309        0.43724        1.99613
H         -4.74325       -0.64483        2.07866
C         -3.25328        2.33341        1.38577
H         -2.30982        2.71476        0.99959
C         -5.66500        1.30291        2.34370
H         -6.60703        0.89346        2.71548
C         -4.29395        3.19033        1.73896
H         -4.15446        4.26989        1.64186
C         -5.50299        2.68224        2.21105
H         -6.31633        3.35952        2.48052
C          0.79292        1.18391        2.09218
H         -0.13897        0.63976        1.86347
C          0.49497        2.66038        2.21965
H          0.05973        3.04272        1.28579
H          1.41357        3.22792        2.43488
H         -0.22505        2.83541        3.03195
C          1.41945        0.58655        3.33611
H          1.63662       -0.48257        3.20189
H          2.35904        1.09984        3.59234
H          0.72806        0.68578        4.18581
C          4.36848       -0.67036        1.00413
C          4.71625        0.61026        1.43694
H          3.93450        1.32150        1.69838
C          5.35420       -1.59215        0.65281
H          5.04612       -2.58817        0.32983
C          6.06050        0.97086        1.48028
H          6.33069        1.98028        1.79868
C          6.69526       -1.22212        0.71067
H          7.46582       -1.94482        0.43141
C          7.05388        0.06294        1.11644
H          8.10561        0.35491        1.15276
C          3.45343        1.13792       -1.42211
C          4.67137        0.71294       -1.94914
H          4.81469       -0.34771       -2.15966
C          3.22657        2.48411       -1.14132
H          2.26462        2.79046       -0.73331
C          5.68571        1.64095       -2.16210
H          6.64663        1.30477       -2.55805
C          4.25018        3.40405       -1.36051
H          4.07933        4.45918       -1.13323
C          5.48203        2.98834       -1.86343
H          6.28164        3.71403       -2.02711
