72
Cat111.ts34.5.log	Energy: -1060505.3276283
C         -0.30350       -1.74656       -2.42431
H          0.01321       -2.79283       -2.39079
H         -1.33328       -1.62262       -2.78224
C          0.67809       -0.77724       -2.85265
H          1.70922       -1.09759       -3.02717
H          0.36206       -0.00611       -3.56655
H          0.53141        0.42446       -1.82853
Ir         0.29192       -0.73146       -0.62365
C         -2.50021        1.09947       -1.82650
C         -3.14521       -1.14766       -0.07983
C         -2.13859        1.28352        1.10840
C          1.16735        0.72035        2.56514
C          3.39769       -0.07932        0.90471
C          1.82441        2.30745        0.29278
P          1.65543        0.52949        0.76682
P         -1.86364        0.15790       -0.33475
C          0.73529       -2.31331        0.29440
O          1.00785       -3.28269        0.87262
H         -2.06628        0.51355       -2.65671
C         -4.00782        1.15387       -2.04549
H         -4.23028        1.68584       -2.98547
H         -4.45149        0.15161       -2.12674
H         -4.52969        1.68778       -1.23788
C         -1.86418        2.48464       -1.86717
H         -0.77812        2.42814       -1.69253
H         -2.02472        2.95757       -2.84909
H         -2.29985        3.15309       -1.10728
H         -4.15003       -0.69629       -0.03109
H         -3.11714       -1.77075       -0.99017
C         -2.89238       -2.01593        1.14513
H         -2.94026       -1.39399        2.05639
H         -1.86283       -2.40499        1.09554
C         -3.88004       -3.16588        1.26648
H         -4.91850       -2.80366        1.33885
H         -3.82234       -3.83035        0.38959
H         -3.67636       -3.77671        2.15913
H         -1.74419        0.71461        1.96679
H         -1.43695        2.12358        0.97250
C         -3.53296        1.80304        1.43258
H         -4.24379        0.96155        1.48493
H         -3.89071        2.45153        0.61704
C         -3.56637        2.57578        2.74329
H         -3.25046        1.94079        3.58661
H         -2.88645        3.44245        2.71240
H         -4.57608        2.95190        2.96828
H          0.32960        1.43718        2.50991
C          0.63336       -0.58690        3.13554
H          0.27270       -0.43628        4.16579
H         -0.19091       -0.98141        2.52542
H          1.41274       -1.36480        3.16852
C          2.24983        1.31469        3.46020
H          2.66587        2.25426        3.06706
H          1.83504        1.53389        4.45730
H          3.08310        0.61040        3.60475
H          4.02729        0.71936        1.33305
H          3.36515       -0.89221        1.65199
C          3.99919       -0.61750       -0.38661
H          4.04383        0.18283       -1.14344
H          3.30792       -1.37153       -0.79738
C          5.38338       -1.21250       -0.18221
H          6.09508       -0.46562        0.20612
H          5.35410       -2.04549        0.53862
H          5.79456       -1.60446       -1.12508
H          0.79730        2.70905        0.34267
H          2.40708        2.83077        1.06929
C          2.41678        2.58647       -1.08066
H          1.93115        1.93176       -1.82360
H          3.48414        2.31049       -1.08523
C          2.26494        4.04143       -1.49731
H          1.20226        4.32764       -1.55601
H          2.74955        4.72052       -0.77743
H          2.71453        4.22669       -2.48469
