96
Cat159.ts34.5.log	Energy: -1586459.9970457
C          1.51632       -3.19027       -0.01257
H          1.22131       -3.95795       -0.73358
H          2.59718       -3.03172        0.05958
C          0.73953       -3.09243        1.19294
H         -0.14516       -3.72287        1.32615
H          1.28189       -2.92446        2.13147
H          0.40160       -1.57101        1.37996
Ir         0.27430       -1.43972       -0.29678
O          1.64865        1.05996        1.37514
C          3.57383       -0.60819        0.41824
C          2.28235        1.41031       -1.26837
O         -2.09940        0.85649       -1.15552
C         -3.23291       -1.30893       -0.00896
C         -1.90223        0.78266        1.47186
P         -1.69431       -0.27859       -0.00337
P          1.95313        0.14214        0.03136
C         -0.13809       -1.93436       -2.07065
O         -0.33966       -2.25895       -3.16355
C          2.19049        2.32246        1.70532
H          3.11273        2.18557        2.30197
H          2.45650        2.88390        0.79499
C          1.14212        3.07824        2.49194
H          1.54640        4.06818        2.76632
H          0.29489        3.25543        1.81355
C          0.68313        2.32154        3.73101
H          1.52086        2.29144        4.44970
H          0.48348        1.27545        3.44902
C         -0.54812        2.89399        4.42424
H         -0.48891        3.99728        4.45993
H         -1.77338        4.03311        2.29483
H         -0.54469        2.56186        5.47640
C          3.97699       -0.65405        1.75869
H          3.36269       -0.15476        2.51151
C          4.31992       -1.29919       -0.56289
C          3.89302       -1.33609       -2.00014
H          4.01970       -0.35847       -2.49169
H          2.82347       -1.59083       -2.08312
H          4.47479       -2.07793       -2.56414
C          5.13614       -1.32614        2.13660
H          5.44043       -1.34293        3.18591
C          5.48138       -1.96744       -0.15922
H          6.06737       -2.50049       -0.91333
C          5.89834       -1.97795        1.17002
H          6.81045       -2.50970        1.45118
C          1.17656        1.66177       -2.09160
H          0.26547        1.08973       -1.90593
C          3.47662        2.14644       -1.46893
C          4.73303        1.98555       -0.65927
H          5.30361        1.09703       -0.97078
H          4.54103        1.86048        0.41253
H          5.38178        2.86240       -0.79402
C          1.21967        2.60533       -3.11159
H          0.33963        2.77811       -3.73462
C          3.49813        3.08523       -2.51050
H          4.41647        3.65502       -2.67716
C          2.39563        3.31657       -3.32709
H          2.45759        4.05772       -4.12776
C         -2.32443        0.43372       -2.49189
H         -1.36708        0.43113       -3.04248
H         -2.71326       -0.59850       -2.51012
C         -3.31854        1.36793       -3.14732
H         -3.49242        1.00697       -4.17607
H         -4.28565        1.28043       -2.62257
C         -2.87823        2.82425       -3.17462
H         -1.92870        2.90366       -3.73258
H         -2.64875        3.14604       -2.14552
C         -3.91445        3.75009       -3.78950
H         -4.14254        3.46468       -4.82925
H         -4.86110        3.71705       -3.22627
H         -3.57073        4.79556       -3.79934
C         -3.06174       -2.68040       -0.22543
H         -2.03830       -3.04237       -0.37049
C         -4.53750       -0.78887        0.17020
C         -4.83546        0.66007        0.43221
H         -4.21568        1.32207       -0.18357
H         -4.62984        0.91646        1.48419
H         -5.89598        0.87268        0.23681
C         -4.14293       -3.55611       -0.25772
H         -3.97992       -4.62260       -0.42876
C         -5.61071       -1.68745        0.12783
H         -6.62335       -1.29649        0.26131
C         -5.42706       -3.05293       -0.07746
H         -6.29254       -3.71991       -0.10165
C         -1.90167        2.12017        1.31601
H         -1.77032        2.54506        0.31790
C         -2.10052        0.19383        2.81839
C         -2.29109       -1.28535        2.99190
H         -1.54475       -1.86134        2.42495
H         -3.27775       -1.61211        2.62936
H         -2.20767       -1.56112        4.05226
C         -2.23717        3.04455        2.44214
H         -3.32881        3.22557        2.36927
C         -2.11778        1.01111        3.89081
H         -2.22533        0.56212        4.88462
C         -1.92131        2.49896        3.84078
H         -2.65636        2.94880        4.52992
