82
Cat134.ts34.5.log	Energy: -1627337.9899401
C          0.79694       -0.29078       -3.66950
H          0.63398        0.54119       -4.35960
H          1.82546       -0.66316       -3.64694
C         -0.26849       -1.24401       -3.51218
H         -1.23710       -1.05663       -3.98279
H         -0.01534       -2.30922       -3.46523
H         -0.31406       -1.49446       -1.92262
Ir        -0.07666        0.14994       -1.74178
O          2.88475       -1.34289       -1.08376
O          2.92461        0.99508       -0.36295
O          1.53910       -0.66735        0.99944
O         -1.20683        1.03067        1.27775
O         -3.06880        0.55518       -0.37715
O         -1.75221       -1.31464        0.77167
P         -1.51683        0.11652       -0.02327
P          1.81524       -0.22573       -0.58550
C         -0.47201        1.97257       -2.18383
O         -0.69740        3.07455       -2.42506
C          4.29661       -1.26190       -0.97970
H          4.68642       -0.43770       -1.59460
H          4.62408       -1.11647        0.05989
H          4.69158       -2.21635       -1.35316
C          2.58505        2.31673       -0.26420
C          3.37818        3.24368       -0.93712
H          4.23004        2.88633       -1.51868
C          1.48928        2.74686        0.48416
H          0.85030        2.02550        0.99496
C          3.07006        4.59851       -0.86239
H          3.69877        5.31813       -1.39422
C          1.18826        4.10516        0.53471
H          0.31456        4.42813        1.10768
C          1.96429        5.05605       -0.13557
C          1.59881        6.51187       -0.11059
H          2.47763        7.15295       -0.27221
H          1.13999        6.79697        0.84766
H          0.86971        6.74715       -0.90413
C          2.54078       -0.99697        1.87612
C          3.14478       -0.01082        2.65480
H          2.82985        1.02804        2.54028
C          2.93832       -2.32780        1.99784
H          2.46777       -3.07971        1.36176
C          4.14568       -0.36625        3.55424
H          4.61891        0.41285        4.15844
C          3.94087       -2.66622        2.90283
H          4.25133       -3.71123        2.99012
C          4.56219       -1.69591        3.69812
C          5.62039       -2.07030        4.69530
H          5.18343       -2.23237        5.69505
H          6.37734       -1.27869        4.79651
H          6.13423       -2.99930        4.40904
C         -1.34493        0.63451        2.63218
H         -2.38499        0.36730        2.87080
H         -0.68530       -0.21635        2.85325
H         -1.04454        1.49960        3.23836
C         -4.00123        0.78520        0.60832
C         -4.19560        2.08508        1.07106
H         -3.59260        2.89078        0.64890
C         -4.74725       -0.26726        1.13433
H         -4.57789       -1.28169        0.77012
C         -5.13924        2.32557        2.06474
H         -5.28479        3.34736        2.42636
C         -5.68807       -0.00914        2.12850
H         -6.26859       -0.83937        2.54023
C         -5.90290        1.28662        2.61227
C         -6.94160        1.56098        3.66109
H         -6.64330        2.39225        4.31670
H         -7.12305        0.67769        4.29030
H         -7.90478        1.83879        3.20094
C         -1.63124       -2.53405        0.16380
C         -0.66699       -3.41913        0.64062
H         -0.02845       -3.10219        1.46626
C         -2.44519       -2.89125       -0.90933
H         -3.18198       -2.17974       -1.28813
C         -0.52709       -4.66673        0.04312
H          0.23458       -5.35586        0.41911
C         -2.28734       -4.14374       -1.50021
H         -2.92368       -4.41606       -2.34668
C         -1.33123       -5.05382       -1.03788
C         -1.18059       -6.41118       -1.66160
H         -1.65884       -7.18860       -1.04267
H         -0.12131       -6.68934       -1.76915
H         -1.64534       -6.45108       -2.65695
