54
Cat179.ts34.5.log	Energy: -1146418.4191652
C          1.56623       -2.49968       -0.49665
H          1.31376       -3.13498       -1.34987
H          2.58945       -2.11398       -0.51231
C          0.96737       -2.83293        0.76745
H          0.22162       -3.63036        0.81921
H          1.59409       -2.78398        1.66545
H          0.44359       -1.45190        1.35880
Ir         0.02941       -1.01093       -0.21266
O          3.08797        0.47618       -0.35806
O          1.25873        1.76034       -1.44888
O          1.59091        1.82218        1.06464
O         -2.18840        1.47661        0.50211
O         -3.33340       -0.61883       -0.00236
O         -2.04028       -0.30948        2.19931
P         -1.88335       -0.12098        0.58642
P          1.47678        0.75118       -0.18441
C         -0.70755       -1.31514       -1.93469
O         -1.15164       -1.48094       -2.98657
C          4.05093        0.54220        0.69361
H          3.94918        1.52189        1.18963
C          5.41011        0.44749        0.03408
H          5.53636        1.25026       -0.70648
H          5.51884       -0.51746       -0.48431
H          6.21075        0.53431        0.78368
C          3.82021       -0.54892        1.72421
H          2.81347       -0.46977        2.16085
H          3.92493       -1.54540        1.26811
H          4.55230       -0.46559        2.54149
C          2.11259        2.86597       -1.66363
H          2.15443        3.51483       -0.77441
H          3.13121        2.53104       -1.91349
H          1.69974        3.43383       -2.50828
C          0.62077        1.93238        2.08128
H         -0.22984        2.54986        1.75624
H          0.23039        0.94495        2.37700
H          1.10705        2.40295        2.94779
C         -2.85725        2.16514       -0.56245
H         -3.90053        1.80527       -0.57972
C         -2.21485        1.90088       -1.91001
H         -2.34767        0.85545       -2.21908
H         -1.13577        2.11370       -1.87972
H         -2.68644        2.53499       -2.67580
C         -2.83189        3.62963       -0.17961
H         -3.26286        3.77667        0.82135
H         -1.79605        4.00287       -0.17128
H         -3.41043        4.22595       -0.90031
C         -3.60564       -1.98345       -0.23688
H         -2.67627       -2.54384       -0.43649
H         -4.11249       -2.42916        0.63449
H         -4.26486       -2.05421       -1.11324
C         -3.13918        0.25319        2.88963
H         -3.03380        1.34569        2.97268
H         -4.08951        0.02758        2.37990
H         -3.15293       -0.19166        3.89364
