90
Cat189.ts34.5.log	Energy: -1537189.1637420
C         -1.24750       -2.76001       -1.48022
H         -1.19241       -3.73847       -0.99487
H         -2.25733       -2.47300       -1.79001
C         -0.14234       -2.38492       -2.32133
H          0.74242       -3.02542       -2.38498
H         -0.37381       -1.89651       -3.27541
H          0.20816       -0.89964       -1.92170
Ir        -0.14258       -1.30702       -0.32297
O         -1.59716        1.64278       -1.24577
C         -3.41241       -0.36474       -0.83294
C         -2.20729        1.07333        1.34359
O          2.08737        0.21449        1.81493
C          3.32786       -0.95530       -0.28840
C          1.99294        1.52811       -0.45139
P          1.75727       -0.14806        0.22925
P         -1.80465        0.30687       -0.27736
C         -0.15999       -2.43762        1.19125
O         -0.23741       -3.14836        2.10202
C         -2.10352        2.95470       -0.98063
H         -2.03627        3.14185        0.10488
C         -3.55190        3.11045       -1.40458
H         -4.20477        2.39105       -0.89243
H         -3.66296        2.96279       -2.48988
H         -3.90406        4.12398       -1.15855
C         -1.18244        3.92229       -1.69099
H         -0.15310        3.80828       -1.32825
H         -1.19128        3.73143       -2.77559
H         -1.50619        4.95961       -1.51775
C         -3.86418       -0.12992       -2.13346
H         -3.31763        0.56453       -2.77393
C         -4.08917       -1.29430       -0.03130
H         -3.70604       -1.51991        0.96888
C         -4.99791       -0.79242       -2.60452
H         -5.35015       -0.60765       -3.62263
C         -5.22966       -1.95756       -0.48705
C         -5.96359       -2.92666        0.39400
H         -6.22348       -3.84654       -0.15146
H         -5.36265       -3.20727        1.27026
H         -6.90715       -2.49091        0.76220
C         -5.67846       -1.69070       -1.78914
H         -6.56454       -2.20710       -2.16905
C         -3.51136        1.35053        1.76698
H         -4.36486        1.04007        1.16104
C         -1.13056        1.48832        2.13764
H         -0.11159        1.25312        1.82300
C         -3.72212        2.03033        2.96588
H         -4.74217        2.23921        3.29805
C         -1.32669        2.19744        3.32516
C         -0.16066        2.66425        4.14731
H         -0.11884        2.13685        5.11404
H          0.78921        2.48469        3.62599
H         -0.23551        3.74039        4.36829
C         -2.64198        2.45709        3.73236
H         -2.81947        3.00257        4.66385
C          2.31227       -0.85542        2.74327
H          2.13810       -1.81604        2.22719
C          1.32373       -0.72969        3.88264
H          0.29177       -0.72937        3.50651
H          1.49584        0.20448        4.43788
H          1.43529       -1.57402        4.57868
C          3.75780       -0.80107        3.19669
H          4.43978       -0.92369        2.34357
H          3.96933        0.16777        3.67548
H          3.96314       -1.60003        3.92500
C          3.34020       -2.33168       -0.51632
H          2.39685       -2.88237       -0.44086
C          4.52126       -0.22705       -0.38473
H          4.50965        0.85212       -0.20790
C          4.53995       -2.97098       -0.83008
H          4.55348       -4.04988       -1.00353
C          5.72735       -0.85196       -0.70580
C          7.00155       -0.06669       -0.82448
H          6.85307        0.98392       -0.53881
H          7.79177       -0.48603       -0.18222
H          7.38295       -0.08269       -1.85825
C          5.71834       -2.23815       -0.92416
H          6.65400       -2.74646       -1.17534
C          2.37399        2.60665        0.35116
H          2.47966        2.46359        1.42736
C          1.86916        1.70238       -1.83256
H          1.54667        0.85955       -2.45074
C          2.63971        3.84130       -0.24088
H          2.93894        4.68809        0.38191
C          2.15139        2.92774       -2.43858
C          1.98743        3.10750       -3.91891
H          2.16005        2.16687       -4.46109
H          0.96284        3.43943       -4.15670
H          2.67855        3.86609       -4.31408
C          2.54326        3.99631       -1.62084
H          2.76527        4.96597       -2.07529
