100
Cat110.ts34.5.log	Energy: -1541408.7528356
C         -0.32929       -1.45676       -2.99512
H         -0.07664       -2.50490       -3.17888
H         -1.29545       -1.16701       -3.42526
C          0.74898       -0.50131       -3.06090
H          1.77581       -0.85191       -3.19712
H          0.56499        0.44238       -3.59216
H          0.55317        0.40066       -1.81409
Ir         0.09076       -0.95710       -0.94333
C         -2.32301        1.48762       -1.91171
C         -3.34791       -1.16289       -1.35647
C         -2.63833        0.54330        1.00173
C          0.81799       -0.30106        2.52012
C          2.88601       -1.68552        1.01840
C          2.32481        1.33354        0.80398
P          1.55194       -0.37293        0.79006
P         -2.04426        0.06198       -0.71820
C          0.10278       -2.74821       -0.37017
O          0.08705       -3.85265       -0.01512
H         -1.99661        0.98007       -2.84023
C         -3.74306        1.99446       -2.12884
H         -3.75962        2.68112       -2.99123
H         -4.45375        1.18654       -2.34548
H         -4.11477        2.54733       -1.25620
C         -1.37025        2.65225       -1.67459
H         -0.36013        2.30489       -1.41293
H         -1.29334        3.26967       -2.58367
H         -1.73724        3.30345       -0.86931
H         -3.63813       -0.79999       -2.35280
H         -2.77143       -2.08353       -1.51565
C         -4.56992       -1.44475       -0.53812
C         -5.80058       -0.86100       -0.86110
H         -5.86470       -0.20255       -1.73042
C         -4.50269       -2.32428        0.56553
C         -3.23325       -3.05350        0.89133
H         -2.35499       -2.39278        0.88677
H         -3.02024       -3.83432        0.14262
H         -3.29070       -3.54160        1.87359
C         -6.94301       -1.09580       -0.10025
H         -7.88912       -0.62455       -0.37655
C         -5.65498       -2.53900        1.32936
H         -5.59746       -3.21146        2.18972
C         -6.86664       -1.92969        1.01204
H         -7.75058       -2.11664        1.62620
H         -3.26336       -0.30067        1.32766
H         -1.73088        0.51060        1.61456
C         -3.38506        1.82450        1.22713
C         -4.78263        1.83967        1.14331
H         -5.30692        0.90854        0.91912
C         -2.70690        3.01672        1.55545
C         -1.22154        3.03754        1.77901
H         -0.67606        2.47572        1.00817
H         -0.96556        2.58620        2.75303
H         -0.83407        4.06586        1.78398
C         -5.50748        3.01360        1.32129
H         -6.59715        2.99709        1.24310
C         -3.44915        4.19171        1.72129
H         -2.92152        5.11864        1.96327
C         -4.83600        4.20257        1.59716
H         -5.38968        5.13499        1.73034
H          0.19139        0.60653        2.46725
C         -0.08945       -1.49629        2.77270
H         -0.60345       -1.39108        3.74124
H         -0.84428       -1.59650        1.98362
H          0.47997       -2.43924        2.80192
C          1.80994       -0.13478        3.66560
H          2.51901        0.69320        3.52584
H          1.26544        0.05675        4.60414
H          2.39450       -1.05389        3.82047
H          2.58746       -2.23962        1.92108
H          2.71737       -2.36538        0.17382
C          4.33998       -1.33079        1.10021
C          5.00999       -1.35731        2.33055
H          4.44802       -1.60015        3.23558
C          5.07083       -1.04986       -0.07232
C          4.41967       -1.08942       -1.42246
H          3.37941       -0.73650       -1.39959
H          4.39692       -2.12287       -1.81022
H          4.96912       -0.46865       -2.14350
C          6.37532       -1.10045        2.42221
H          6.87420       -1.13253        3.39353
C          6.43860       -0.77806        0.03788
H          7.00086       -0.54469       -0.87033
C          7.09300       -0.80103        1.26665
H          8.16357       -0.58906        1.32013
H          1.42490        1.97062        0.82820
H          2.81239        1.44594        1.77847
C          3.24687        1.81690       -0.28141
C          2.77112        1.99915       -1.58452
H          1.72192        1.79097       -1.78853
C          4.58292        2.17043        0.00609
C          5.12859        2.14641        1.40322
H          5.03744        1.15532        1.86841
H          4.59808        2.86686        2.04810
H          6.19271        2.41654        1.41060
C          3.59636        2.43437       -2.61587
H          3.19277        2.55503       -3.62392
C          5.40402        2.60177       -1.04252
H          6.44268        2.86026       -0.81911
C          4.93221        2.71949       -2.34672
H          5.60014        3.05734       -3.14280
