90
Cat188.ts34.5.log	Energy: -1537185.6491870
C         -1.04127       -2.57597       -1.76080
H         -0.84952       -3.60243       -1.43670
H         -2.09361       -2.37218       -1.98178
C         -0.03285       -1.94710       -2.56997
H          0.90950       -2.46880       -2.76351
H         -0.36548       -1.35513       -3.43171
H          0.19532       -0.53969       -1.95750
Ir        -0.03595       -1.20146       -0.42213
O         -2.30481        1.15480       -1.54377
C         -3.49500       -0.81978       -0.31412
C         -2.19956        1.27385        1.18683
O          1.93822        0.49050        1.84715
C          3.47139       -0.77371       -0.02566
C          1.96166        1.64383       -0.53232
P          1.81886       -0.00642        0.26133
P         -1.94755        0.15816       -0.25757
C          0.07171       -2.54700        0.89405
O          0.05606       -3.41667        1.65736
C         -1.33023        2.08559       -2.01644
H         -0.36216        1.85553       -1.54084
C         -1.75176        3.49123       -1.63390
H         -1.82219        3.59361       -0.54172
H         -2.73278        3.73277       -2.07256
H         -1.01464        4.22128       -1.99805
C         -1.19061        1.89753       -3.51255
H         -0.86969        0.87163       -3.74407
H         -2.15266        2.07983       -4.01674
H         -0.44233        2.59397       -3.91921
C         -4.21610       -0.86818       -1.51433
H         -3.88537       -0.24928       -2.34967
C         -3.90904       -1.60229        0.78519
C         -3.19416       -1.58817        2.10417
H         -3.43009       -0.67667        2.67593
H         -2.10278       -1.60792        1.97364
H         -3.48266       -2.45666        2.71222
C         -5.34514       -1.67266       -1.64095
H         -5.89517       -1.69455       -2.58486
C         -5.04713       -2.40242        0.63237
H         -5.37418       -3.01086        1.48020
C         -5.76413       -2.44395       -0.56058
H         -6.64722       -3.08200       -0.64460
C         -1.16476        1.31778        2.12446
H         -0.29089        0.68139        1.97113
C         -3.34960        2.07812        1.37077
C         -4.52921        2.05838        0.44348
H         -5.13478        1.15201        0.60350
H         -4.21727        2.04562       -0.60800
H         -5.17359        2.93112        0.61952
C         -1.22929        2.15021        3.23868
H         -0.40387        2.17004        3.95407
C         -3.38858        2.91324        2.49403
H         -4.26806        3.54594        2.64343
C         -2.34822        2.95673        3.42010
H         -2.41736        3.62300        4.28377
C          2.68991       -0.13393        2.88686
H          3.74244       -0.21116        2.55941
C          2.18483       -1.52433        3.20690
H          2.32171       -2.20567        2.35696
H          1.11643       -1.50650        3.46678
H          2.74453       -1.93926        4.05848
C          2.61449        0.80624        4.07247
H          2.96078        1.81202        3.79384
H          1.57785        0.88350        4.43445
H          3.24141        0.43602        4.89681
C          3.46829       -2.11324       -0.43015
H          2.49577       -2.60349       -0.54902
C          4.70060       -0.09343        0.14024
C          4.81172        1.34855        0.54894
H          4.03337        1.64571        1.26189
H          4.70145        2.01347       -0.32278
H          5.79644        1.54483        0.99631
C          4.65249       -2.79854       -0.68297
H          4.62499       -3.84441       -0.99684
C          5.87986       -0.80403       -0.11786
H          6.83748       -0.29142        0.00971
C          5.86600       -2.13503       -0.52754
H          6.80864       -2.65335       -0.72025
C          1.57507        2.76253        0.21687
H          1.27409        2.62547        1.25596
C          2.34766        1.79990       -1.88022
C          2.79764        0.65647       -2.74326
H          2.20921       -0.25345       -2.56466
H          3.84842        0.39434       -2.54014
H          2.71485        0.91905       -3.80728
C          1.57229        4.03523       -0.34443
H          1.26118        4.89309        0.25601
C          2.33644        3.09161       -2.42210
H          2.63735        3.22255       -3.46542
C          1.95766        4.20167       -1.67218
H          1.95930        5.19458       -2.12841
