110
Cat190.ts34.5.log	Energy: -2013093.5461977
C          0.78470       -2.88354       -1.18116
H          0.44678       -3.22780       -2.16349
H          1.85201       -3.04968       -0.99601
C         -0.12077       -3.06323       -0.07339
H         -1.12695       -3.46686       -0.23669
H          0.31725       -3.41986        0.86883
H         -0.17277       -1.72245        0.68216
Ir        -0.03710       -0.93357       -0.80081
O          1.39877        0.78303        1.73003
C          3.05134       -1.15796        0.52528
C          2.69370        1.49420       -0.57792
O         -2.57923        1.05257       -1.60448
C         -3.43913       -1.03385       -0.05438
C         -2.02401        1.29224        1.11577
P         -2.03842        0.15291       -0.33714
P          1.74739        0.12923        0.25282
C         -0.15973       -0.45652       -2.61251
O         -0.21365       -0.15999       -3.73287
C          2.23677        1.71672        2.41951
H          3.27723        1.57740        2.08424
C          2.15901        1.41234        3.90279
H          2.51841        0.39654        4.10475
H          1.11969        1.50035        4.25245
H          2.77682        2.12562        4.46956
C          1.77702        3.13042        2.11280
H          1.84274        3.34321        1.03829
H          0.73054        3.25741        2.42416
H          2.40004        3.86319        2.64912
C          3.75479       -1.59459       -0.61862
O          3.51352       -0.89163       -1.74066
C          3.88830       -1.39584       -2.98830
H          3.43197       -0.73483       -3.73607
H          4.98451       -1.38854       -3.12499
H          3.51270       -2.42268       -3.13768
C          3.20834       -1.92063        1.69571
O          2.45732       -1.57872        2.77065
C          2.51463       -2.36909        3.92041
H          1.80862       -1.92924        4.63761
H          3.52048       -2.37085        4.37641
H          2.21567       -3.41331        3.71902
C          4.09355       -3.00976        1.74056
H          4.22352       -3.57936        2.65941
C          4.63505       -2.67983       -0.58709
H          5.17439       -2.98258       -1.48418
C          4.80780       -3.37271        0.60576
H          5.49503       -4.22077        0.64804
C          4.09222        1.65476       -0.48328
O          4.72723        0.93581        0.46496
C          6.10862        0.73412        0.39072
H          6.34855       -0.03610        1.13550
H          6.41016        0.37123       -0.60657
H          6.67578        1.65199        0.62651
C          2.00541        2.35379       -1.46254
O          0.66935        2.31049       -1.42955
C         -0.07634        2.90756       -2.45969
H         -1.11229        2.59626       -2.28852
H          0.25443        2.54767       -3.44743
H          0.00042        4.00897       -2.42464
C          2.69915        3.23131       -2.31007
H          2.15623        3.86633       -3.00827
C          4.78965        2.53424       -1.31824
H          5.87177        2.63334       -1.23985
C          4.08302        3.30145       -2.23688
H          4.62282        3.98852       -2.89339
C         -3.93046        1.14191       -2.04791
H         -4.32318        0.11575       -2.14540
C         -3.86545        1.75959       -3.42962
H         -3.18020        1.18133       -4.06570
H         -3.49536        2.79550       -3.37300
H         -4.86200        1.77407       -3.89602
C         -4.82077        1.91172       -1.09017
H         -4.77134        1.49180       -0.07498
H         -4.52451        2.96818       -1.03944
H         -5.86620        1.85315       -1.43091
C         -4.28984       -1.08718        1.06873
O         -4.37739        0.02046        1.82482
C         -4.90883       -0.04980        3.11571
H         -4.70542        0.92128        3.58530
H         -5.99913       -0.22476        3.10583
H         -4.42068       -0.84316        3.70722
C         -3.54044       -2.09339       -0.98451
O         -2.90319       -1.89893       -2.14783
C         -2.61366       -2.97432       -2.99500
H         -1.93060       -2.58478       -3.76022
H         -3.52301       -3.36410       -3.48527
H         -2.11602       -3.79528       -2.45177
C         -4.28876       -3.24445       -0.71459
H         -4.32728       -4.06358       -1.43219
C         -5.04336       -2.23491        1.35041
H         -5.67197       -2.27795        2.23920
C         -5.01555       -3.30914        0.46880
H         -5.60570       -4.20167        0.69062
C         -1.75659        0.69687        2.35990
O         -1.71799       -0.65229        2.36270
C         -0.89059       -1.30392        3.29170
H         -0.88076       -2.36357        3.00415
H          0.13224       -0.90179        3.23763
H         -1.28562       -1.22998        4.32050
C         -2.07115        2.69921        1.06687
O         -2.23801        3.28760       -0.13414
C         -2.17509        4.67836       -0.23431
H         -2.28783        4.91778       -1.29991
H         -1.20565        5.07106        0.11968
H         -2.98798        5.17425        0.32556
C         -1.93855        3.45804        2.24009
H         -1.99808        4.54444        2.20236
C         -1.60038        1.44548        3.52802
H         -1.40762        0.95126        4.47980
C         -1.71345        2.82759        3.45781
H         -1.60539        3.42929        4.36340
