88
Cat109.ts34.5.log	Energy: -1442807.3435555
C          0.85044       -2.43440       -1.64813
H          0.65699       -2.32992       -2.71960
H          1.83248       -2.86756       -1.42611
C         -0.25625       -2.82473       -0.81513
H         -1.25642       -2.92312       -1.24693
H         -0.07805       -3.58151       -0.04042
H         -0.22803       -1.88664        0.39263
Ir         0.25189       -0.62458       -0.63474
C          1.79866       -0.47311        2.67050
C          3.37700       -1.72252        0.63964
C          3.19385        1.12198        0.61550
C         -1.45396        2.34085        0.45215
C         -2.90831        0.42490       -1.37708
C         -2.67382       -0.16885        1.45833
P         -1.67837        0.51548        0.03165
P          2.08508       -0.36699        0.81492
C          0.43072        0.48256       -2.13678
O          0.56524        1.17118       -3.06306
H          1.48177       -1.52877        2.77017
C          3.01365       -0.24300        3.56048
H          2.77097       -0.49722        4.60506
H          3.88563       -0.84882        3.27388
H          3.32555        0.81211        3.55268
C          0.63407        0.40730        3.09918
H         -0.21316        0.26907        2.41815
H          0.31062        0.16195        4.12396
H          0.90211        1.47316        3.07617
H          2.80619       -2.62570        0.37085
H          3.84028       -1.91816        1.61669
C          4.45076       -1.44528       -0.37053
C          5.78651       -1.34047        0.03617
H          6.03716       -1.49066        1.09038
C          4.15242       -1.24040       -1.72649
H          3.11253       -1.28236       -2.05637
C          6.79769       -1.04974       -0.87790
H          7.83302       -0.97615       -0.53586
C          5.16177       -0.94686       -2.64037
H          4.90559       -0.78607       -3.69046
C          6.48875       -0.85211       -2.22214
H          7.27855       -0.62173       -2.94104
H          3.67678        0.96041       -0.35868
H          3.99065        1.06344        1.37323
C          2.53996        2.46858        0.62740
C          2.41431        3.21533        1.80583
H          2.80104        2.80938        2.74390
C          2.07279        3.03482       -0.56603
H          2.17049        2.47747       -1.49943
C          1.82345        4.47750        1.79964
H          1.73744        5.04033        2.73247
C          1.50093        4.30448       -0.57923
H          1.15821        4.72907       -1.52566
C          1.36395        5.02851        0.60432
H          0.91341        6.02400        0.59392
H         -0.37819        2.35768        0.68928
C         -1.64347        3.22322       -0.77645
H         -1.32972        4.25024       -0.53811
H         -1.02636        2.88378       -1.62077
H         -2.69049        3.26487       -1.11239
C         -2.19336        2.87527        1.67336
H         -1.91962        2.33578        2.59097
H         -1.91477        3.93008        1.82806
H         -3.28816        2.83292        1.57707
H         -2.71834       -0.57264       -1.79799
H         -2.51204        1.12513       -2.13090
C         -4.38701        0.61037       -1.18585
C         -4.94986        1.70356       -0.51506
H         -4.30025        2.47142       -0.09547
C         -5.26456       -0.34611       -1.71801
H         -4.85065       -1.20344       -2.25646
C         -6.33014        1.83143       -0.37139
H         -6.73877        2.69474        0.15957
C         -6.64518       -0.22271       -1.57973
H         -7.30225       -0.98450       -2.00645
C         -7.18576        0.86733       -0.90031
H         -8.26759        0.96591       -0.78558
H         -3.68601        0.25690        1.38241
H         -2.22548        0.22376        2.37946
C         -2.72223       -1.66455        1.51385
C         -1.82830       -2.37493        2.32603
H         -1.11683       -1.82535        2.94597
C         -3.63907       -2.39010        0.74426
H         -4.35956       -1.85261        0.12427
C         -1.83910       -3.76797        2.35624
H         -1.13511       -4.30123        3.00003
C         -3.64926       -3.78325        0.76941
H         -4.37446       -4.32941        0.16102
C         -2.74559       -4.47900        1.57120
H         -2.75402       -5.57129        1.59149
