94
Cat194.ts34.5.log	Energy: -1725953.1740508
C         -1.36851       -2.09863       -2.70349
H         -1.20868       -3.18005       -2.68874
H         -2.41960       -1.79897       -2.72843
C         -0.40197       -1.30133       -3.40644
H          0.49554       -1.77361       -3.81525
H         -0.76472       -0.47198       -4.02378
H         -0.06095       -0.07330       -2.42357
Ir        -0.19596       -1.15925       -1.15132
O         -2.05540        1.62711       -0.45857
O         -3.40316       -0.54035       -0.76838
O         -2.13241        0.00686        1.38876
O          2.45519       -1.20433        0.75150
O          2.72193        0.46456       -1.17747
O          1.27093        1.08827        0.80005
P          1.58879       -0.21462       -0.18116
P         -1.91837        0.02369       -0.26525
C          0.18615       -2.82907       -0.30884
O          0.41371       -3.83712        0.19580
C         -2.66396        2.59526        0.42764
H         -3.38391        2.06851        1.07173
C         -3.39238        3.59909       -0.43798
H         -4.19437        3.11642       -1.01161
H         -2.69061        4.07921       -1.13711
H         -3.84318        4.38034        0.19190
C         -1.58683        3.22791        1.28267
H         -1.02547        2.45967        1.82623
H         -0.87994        3.80224        0.66638
H         -2.04026        3.91283        2.01506
C         -4.60837        0.07731       -0.55602
C         -5.24635       -0.01861        0.67962
H         -4.76232       -0.57108        1.48662
C         -5.19049        0.76122       -1.63460
C         -4.46717        0.84219       -2.94385
H         -3.47105        1.29295       -2.81091
H         -4.30861       -0.15991       -3.37239
H         -5.02973        1.44387       -3.67051
C         -6.48726        0.58874        0.86077
H         -6.98861        0.51682        1.82869
C         -6.43970        1.35309       -1.42693
H         -6.91164        1.88972       -2.25466
C         -7.08487        1.27687       -0.19314
H         -8.05915        1.75176       -0.05779
C         -1.92159       -1.10246        2.16224
C         -2.36784       -2.36407        1.76874
H         -2.89161       -2.47619        0.81802
C         -1.25017       -0.91017        3.37939
C         -0.79338        0.45926        3.77620
H         -0.12745        0.88478        3.00989
H         -1.64434        1.15160        3.87336
H         -0.25831        0.43432        4.73526
C         -2.12340       -3.46646        2.58483
H         -2.45738       -4.45618        2.26630
C         -1.02882       -2.03231        4.18126
H         -0.50372       -1.90101        5.13154
C         -1.45113       -3.30324        3.79236
H         -1.25443       -4.16437        4.43463
C          3.34577       -0.87476        1.83482
H          3.67112        0.17140        1.71817
C          4.55057       -1.78183        1.72253
H          5.08678       -1.60809        0.78014
H          4.23453       -2.83521        1.76215
H          5.24305       -1.59288        2.55603
C          2.58921       -1.04333        3.13492
H          1.71629       -0.37939        3.16645
H          2.22807       -2.07807        3.23161
H          3.23947       -0.81351        3.99253
C          4.08213        0.27026       -1.16080
C          4.89914        1.24466       -0.59108
H          4.43748        2.12594       -0.14172
C          4.61442       -0.87457       -1.77321
C          3.71062       -1.90616       -2.37159
H          4.27794       -2.62586       -2.97684
H          3.17369       -2.46129       -1.58579
H          2.93728       -1.43809       -2.99865
C          6.28203        1.07865       -0.60644
H          6.92292        1.84024       -0.15653
C          6.00675       -1.00974       -1.78082
H          6.44390       -1.89329       -2.25373
C          6.83768       -0.05270       -1.20063
H          7.92125       -0.18908       -1.21920
C          1.90590        2.30299        0.87347
C          2.59504        2.60728        2.04764
H          2.62059        1.86621        2.84802
C          1.79137        3.23720       -0.17022
C          0.99985        2.95003       -1.40868
H          1.59372        2.36115       -2.12391
H          0.09331        2.36978       -1.18388
H          0.70115        3.88705       -1.89935
C          3.23080        3.83720        2.18928
H          3.77170        4.06680        3.11004
C          2.44630        4.46326        0.00012
H          2.37561        5.20317       -0.80181
C          3.16669        4.76639        1.15323
H          3.66336        5.73450        1.24777
