96
Cat174.ts34.5.log	Energy: -1835460.0323844
C          1.13861        1.35717       -2.76582
H          1.67596        1.01478       -3.65420
H          0.15639        1.79628       -2.96336
C          1.91450        1.91628       -1.69467
H          3.00671        1.89874       -1.74111
H          1.52451        2.80332       -1.18288
H          1.33214        1.23897       -0.36313
Ir         1.19228       -0.18114       -1.24050
O         -1.57645        1.57783       -1.03872
C         -2.12943       -1.01800       -1.95178
C         -1.66791       -0.39834        0.91124
O          0.90399       -2.47177        1.09500
C          3.51524       -2.36579        0.30645
C          2.37787       -0.40528        2.12469
P          1.98756       -1.33239        0.54388
P         -1.06609        0.01884       -0.80982
C          1.68278       -1.56660       -2.43055
O          1.98361       -2.43290       -3.13850
C         -2.88569        2.01048       -1.35069
H         -3.13124        1.72611       -2.39127
H         -3.62804        1.53290       -0.69028
C         -2.95069        3.51377       -1.20294
H         -2.57966        3.77587       -0.19891
H         -2.25496        3.97795       -1.92275
C         -4.35917        4.05749       -1.39053
H         -5.02768        3.58320       -0.65011
H         -4.74341        3.75611       -2.38166
C         -4.43835        5.56895       -1.25148
H         -4.09593        5.89366       -0.25585
H         -3.80419        6.07366       -1.99771
H         -5.46726        5.93538       -1.38467
H         -2.18562       -0.43408       -2.88423
H         -1.46374       -1.86529       -2.17054
C         -3.47275       -1.52398       -1.52047
C         -3.56567       -2.73418       -0.81748
H         -2.65711       -3.30471       -0.60959
C         -4.66441       -0.84542       -1.80720
H         -4.63373        0.08223       -2.38060
C         -4.79023       -3.23516       -0.38260
H         -4.86081       -4.17611        0.16542
C         -5.89828       -1.32981       -1.38304
H         -6.82622       -0.79987       -1.60511
C         -5.94629       -2.51828       -0.66516
F         -7.12318       -2.98556       -0.25135
H         -1.89203       -1.47476        0.91537
H         -0.77303       -0.26830        1.53434
C         -2.80441        0.41744        1.44246
C         -2.58246        1.74014        1.85160
H         -1.57343        2.15437        1.79639
C         -4.10923       -0.08548        1.51212
H         -4.30670       -1.11519        1.20937
C         -3.62896        2.54906        2.28365
H         -3.46532        3.58311        2.59287
C         -5.16850        0.71043        1.94002
H         -6.18840        0.32434        1.98513
C         -4.91603        2.02529        2.31010
F         -5.92673        2.80001        2.70475
C          1.13579       -3.37051        2.16019
H          1.77420       -4.20633        1.81751
H          1.66335       -2.87239        2.99418
C         -0.20156       -3.89902        2.63548
H         -0.03301       -4.54709        3.51305
H         -0.80636       -3.04514        2.98797
C         -0.96187       -4.65822        1.55754
H         -0.38801       -5.55830        1.27520
H         -0.99462       -4.02958        0.65261
C         -2.36846       -5.04958        1.97765
H         -2.35939       -5.68255        2.87944
H         -2.97736       -4.16003        2.20766
H         -2.88502       -5.61276        1.18517
H          3.62485       -3.05707        1.15619
H          3.32450       -2.96743       -0.59591
C          4.74765       -1.52426        0.16354
C          4.97798       -0.76664       -0.99459
H          4.26082       -0.81875       -1.81574
C          5.67134       -1.42908        1.21134
H          5.52085       -2.02129        2.11847
C          6.08702        0.06762       -1.09750
H          6.27364        0.65889       -1.99581
C          6.78750       -0.59814        1.12492
H          7.51071       -0.52166        1.93854
C          6.97698        0.14643       -0.03199
F          8.03853        0.94590       -0.12609
H          1.54738       -0.64121        2.80792
H          3.29517       -0.82716        2.56263
C          2.49819        1.07748        1.96394
C          3.66583        1.66209        1.45877
H          4.52287        1.03290        1.21297
C          1.41327        1.91023        2.25770
H          0.49521        1.47387        2.65939
C          3.74942        3.03513        1.24963
H          4.65621        3.49643        0.85449
C          1.47592        3.28588        2.04826
H          0.63199        3.94059        2.27335
C          2.64827        3.83133        1.54154
F          2.71860        5.14564        1.33262
