62
Cat120.ts34.5.log	Energy: -1056257.7748742
C          1.00534       -2.40641        1.33948
H          0.71464       -3.37796        0.93057
H          2.08098       -2.30561        1.51895
C          0.11106       -1.80215        2.29029
H         -0.84515       -2.28731        2.50432
H          0.55239       -1.32327        3.17308
H         -0.06085       -0.33047        1.84063
Ir        -0.00655       -0.83954        0.23323
O          2.42279        0.91203        1.63339
C          3.48366       -0.57158       -0.44976
C          2.07995        1.95875       -0.90141
O         -1.55630        1.69859       -1.21532
C         -3.32058       -0.40649       -0.99706
C         -2.60837        1.32033        1.29526
P         -1.86416        0.43483       -0.16278
P          1.96689        0.40169        0.10602
C         -0.29786       -1.83827       -1.33942
O         -0.45383       -2.41993       -2.32872
C          3.63161        1.54732        1.95009
H          4.49270        0.85916        1.88778
H          3.83458        2.42201        1.30679
H          3.55536        1.90142        2.98909
H          3.79275       -1.04306        0.50174
C          3.12395       -1.69008       -1.42318
H          4.02442       -2.27406       -1.67282
H          2.37476       -2.36907       -0.99908
H          2.71183       -1.29543       -2.36472
C          4.66071        0.23874       -0.98865
H          4.97624        1.05463       -0.32482
H          5.53087       -0.42282       -1.13086
H          4.42837        0.67741       -1.97119
H          3.14028        2.26043       -0.91927
C          1.62251        1.66357       -2.32647
H          1.68871        2.57573       -2.94158
H          2.23544        0.89054       -2.81366
H          0.57612        1.32278       -2.32322
C          1.26252        3.07511       -0.26841
H          1.55969        3.26985        0.77234
H          1.38899        4.00774       -0.84237
H          0.19923        2.80460       -0.28062
C         -2.41455        2.72858       -1.62377
H         -3.05514        2.41762       -2.46645
H         -3.05947        3.10227       -0.80994
H         -1.78388        3.56403       -1.96569
H         -2.95523       -0.44325       -2.04050
C         -3.53838       -1.84325       -0.52970
H         -4.24846       -2.34879       -1.20353
H         -2.60268       -2.41527       -0.51084
H         -3.96637       -1.87640        0.48396
C         -4.64517        0.35361       -0.96167
H         -4.57477        1.38818       -1.31874
H         -5.38282       -0.16098       -1.59838
H         -5.06502        0.37598        0.05616
H         -3.49389        1.85426        0.91026
C         -3.07652        0.33310        2.35840
H         -3.54607        0.87603        3.19422
H         -3.81239       -0.38630        1.97295
H         -2.22970       -0.24057        2.76213
C         -1.63813        2.34316        1.87344
H         -1.40991        3.14642        1.15914
H         -2.07127        2.80679        2.77431
H         -0.68350        1.86986        2.15253
