80
Cat104.ts34.5.log	Energy: -1532955.4300768
C         -0.75387        0.57980       -3.32894
H         -0.59267       -0.21670       -4.05957
H         -1.76891        0.99020       -3.34831
C          0.34525        1.48358       -3.08721
H          1.31612        1.27387       -3.54445
H          0.12970        2.55949       -3.04453
H          0.40037        1.63246       -1.58222
Ir         0.05390       -0.02118       -1.41821
C         -2.85828        1.92842       -0.24277
O         -3.04277       -0.71774       -0.92165
O         -2.03159       -0.03159        1.34956
C          2.14888       -1.28752        1.27649
O          3.26412       -0.26647       -1.04420
O          2.33804        1.36226        0.60026
P          1.91041       -0.09112       -0.11092
P         -1.89786        0.33365       -0.28511
C          0.10708       -1.86129       -1.86260
O          0.07263       -2.98766       -2.11183
H         -3.56696        1.79147       -1.07874
C         -3.66077        2.16675        1.03112
H         -4.26287        3.08205        0.91537
H         -4.34161        1.33591        1.25762
H         -2.99250        2.30241        1.89259
C         -1.95301        3.10774       -0.57859
H         -1.49760        3.00310       -1.57265
H         -2.54109        4.03882       -0.57658
H         -1.14160        3.22047        0.15362
C         -4.36906       -0.74523       -0.58964
C         -4.80097       -1.32044        0.60813
H         -4.06957       -1.74174        1.29860
C         -5.29721       -0.22967       -1.49664
H         -4.93588        0.18644       -2.43946
C         -6.16261       -1.35228        0.90076
H         -6.49783       -1.80164        1.83866
C         -6.65637       -0.26716       -1.19386
H         -7.37891        0.13805       -1.90638
C         -7.09398       -0.82213        0.00808
H         -8.15981       -0.85020        0.24468
C         -1.50205       -1.13269        1.94100
C         -1.13977       -1.01881        3.28766
H         -1.30538       -0.06719        3.79600
C         -1.34057       -2.35219        1.27336
H         -1.65130       -2.44979        0.23318
C         -0.58480       -2.10845        3.95267
H         -0.29872       -2.00859        5.00242
C         -0.78409       -3.43481        1.95246
H         -0.65293       -4.38056        1.42154
C         -0.39455       -3.31971        3.28570
H          0.04389       -4.17286        3.80758
H          1.14891       -1.27154        1.74392
C          2.38103       -2.69338        0.73221
H          2.31081       -3.41776        1.55766
H          1.63440       -2.98116       -0.01984
H          3.38074       -2.78566        0.28412
C          3.18004       -0.89416        2.32755
H          3.02851        0.13056        2.69428
H          3.09178       -1.57869        3.18625
H          4.20711       -0.96760        1.94314
C          4.58479       -0.31524       -0.68254
C          5.31656       -1.43709       -1.07729
H          4.80479       -2.22934       -1.62692
C          5.21396        0.73584       -0.01161
H          4.63056        1.60929        0.27596
C          6.67276       -1.52133       -0.77333
H          7.23949       -2.40303       -1.08216
C          6.57050        0.63671        0.29110
H          7.05921        1.45665        0.82315
C          7.30477       -0.48869       -0.08109
H          8.36777       -0.55714        0.15981
C          1.51157        2.26003        1.19668
C          1.67352        3.60881        0.87100
H          2.41091        3.88052        0.11340
C          0.56994        1.87724        2.15275
H          0.44630        0.82319        2.40141
C          0.90459        4.57260        1.51828
H          1.03764        5.62669        1.26340
C         -0.19912        2.84933        2.78835
H         -0.93505        2.54375        3.53608
C         -0.03431        4.19900        2.48062
H         -0.63897        4.95636        2.98358
