74
Cat205.ts34.5.log	Energy: -1108304.9759508
C          1.42880       -2.85601       -0.10884
H          0.97284       -3.72853       -0.58604
H          2.43303       -2.63430       -0.48641
C          1.19566       -2.69210        1.30780
H          0.49528       -3.36195        1.81434
H          2.05577       -2.45042        1.94553
H          0.92483       -1.15787        1.47230
Ir         0.03176       -1.22616        0.04757
C          2.72808        1.22248       -0.07464
C          2.41185       -0.37944       -2.45494
C          0.55579        1.75923       -1.85499
C         -2.67206        1.21290        0.12079
C         -2.54594       -0.56453        2.39697
C         -0.61611        1.57603        2.07225
P         -1.44718        0.21857        1.12193
P          1.41258        0.32174       -1.05642
C         -1.25796       -2.13345       -0.99044
O         -2.00838       -2.74320       -1.63099
H          2.12935        1.82519        0.63558
C          3.64677        2.17306       -0.84501
H          3.06468        2.90638       -1.42388
H          4.23953        1.59518       -1.57571
C          4.60022        2.90700        0.09646
H          5.26537        3.56938       -0.48150
H          4.01175        3.56344        0.76315
C          5.41702        1.93666        0.94132
H          6.06597        2.48731        1.64159
H          6.09082        1.36142        0.28049
C          4.51379        0.96831        1.69592
H          3.92103        1.52739        2.44291
H          5.11623        0.23873        2.26127
C          3.56049        0.24274        0.75262
H          4.14635       -0.40403        0.07409
H          2.88999       -0.42451        1.31418
H          3.28899       -0.85710       -1.98696
C          1.68664       -1.39032       -3.32934
H          0.83952       -0.94049       -3.86540
H          1.28061       -2.21044       -2.72146
H          2.80071        0.45909       -3.05680
H          2.37077       -1.81479       -4.08057
H          1.30297        2.41871       -2.32495
C         -0.51768        1.37524       -2.86026
H         -1.15571        0.57083       -2.46529
H         -0.07680        1.01526       -3.80091
H          0.11509        2.33046       -1.01987
H         -1.15602        2.23756       -3.10793
H         -2.02345        1.85086       -0.50720
C         -3.59520        2.12717        0.93256
H         -3.01761        2.79913        1.58492
H         -4.22804        1.51175        1.59579
C         -4.49665        2.95968        0.02374
H         -5.15901        3.59495        0.63431
H         -3.86965        3.64735       -0.57258
C         -5.31205        2.08139       -0.91601
H         -5.92732        2.70174       -1.58775
H         -6.01753        1.47269       -0.32158
C         -4.40615        1.15713       -1.71892
H         -3.77991        1.76148       -2.39997
H         -5.00257        0.48823       -2.35983
C         -3.49568        0.32953       -0.81730
H         -4.11242       -0.36694       -0.22090
H         -2.83371       -0.29835       -1.42682
H         -3.45058       -0.88496        1.85408
C         -1.93853       -1.75815        3.11394
H         -1.02626       -1.48989        3.66734
H         -1.65901       -2.53215        2.38479
H         -2.86479        0.21460        3.10955
H         -2.65466       -2.18845        3.83104
H         -1.39541        2.18292        2.55878
C          0.41303        1.13930        3.09955
H          1.18816        0.50856        2.64029
H         -0.04620        0.56366        3.91707
H         -0.14497        2.21938        1.30966
H          0.90762        2.01395        3.54981
