94
Cat250.ts34.5.log	Energy: -1773421.5952965
C          1.18926        0.57285        3.56156
H          1.02722       -0.14246        4.37204
H          2.24491        0.80536        3.39023
C          0.21463        1.62589        3.40909
H         -0.69427        1.60979        4.01616
H          0.57559        2.64746        3.23259
H         -0.02135        1.69847        1.86789
Ir         0.02452        0.01612        1.83519
C          2.76717        1.29762       -0.23004
O          2.95609       -1.08559        1.02419
O          1.54280       -0.80139       -1.11971
C         -2.75283       -1.21498       -0.18533
O         -2.93992        1.15968        1.07482
O         -1.48124        0.89287       -1.02930
P         -1.75299        0.16420        0.44064
P          1.76845       -0.09861        0.37656
C         -0.34377       -1.71320        2.53326
O         -0.49227       -2.78127        2.94523
C          3.56055        1.21845       -1.38186
C          2.78830        2.46000        0.54378
C          4.41141        3.43806       -0.94804
C          3.61329        3.52614        0.19029
C          4.37697        2.28715       -1.73737
H          3.53352        0.31500       -1.99288
H          4.99897        2.21852       -2.63312
H          5.05971        4.27277       -1.22641
H          3.62435        4.43205        0.80076
H          2.14530        2.52791        1.42420
C          4.16150       -1.31464        0.41170
C          4.27884       -2.28521       -0.58212
H          3.40068       -2.86139       -0.87848
C          5.27732       -0.57417        0.79932
H          5.16263        0.19026        1.56999
C          5.51479       -2.50169       -1.18652
H          5.59794       -3.26201       -1.96824
C          6.50516       -0.80411        0.18774
H          7.37278       -0.21289        0.49374
C          6.64862       -1.76896       -0.81697
C          7.98335       -2.03086       -1.45298
H          7.87347       -2.43673       -2.46910
H          8.56429       -2.76454       -0.86899
H          8.58767       -1.11380       -1.51499
C          0.73226       -1.87829       -1.34301
C          0.58872       -2.91562       -0.41972
H          1.13871       -2.88919        0.52114
C          0.04713       -1.93092       -2.55614
H          0.17247       -1.11597       -3.27033
C         -0.26810       -3.97512       -0.70555
H         -0.39035       -4.76622        0.03906
C         -0.78924       -3.00663       -2.83204
H         -1.32926       -3.03096       -3.78249
C         -0.97232       -4.04526       -1.91143
C         -1.86926       -5.20801       -2.21916
H         -2.35449       -5.58900       -1.30896
H         -1.30264       -6.04241       -2.66615
H         -2.65988       -4.92661       -2.92940
C         -3.08600       -2.24805        0.69649
C         -3.29933       -1.20217       -1.47345
C         -4.51485       -3.23113       -0.98196
C         -4.17862       -2.20712       -1.86583
C         -3.96284       -3.25378        0.29757
H         -2.67041       -2.26403        1.70502
H         -4.21706       -4.05678        0.99324
H         -5.20702       -4.01751       -1.29293
H         -4.60762       -2.18693       -2.87050
H         -3.03621       -0.39649       -2.15886
C         -4.16790        1.30157        0.47156
C         -4.33906        2.15583       -0.61521
H         -3.48890        2.72017       -1.00091
C         -5.25095        0.57562        0.96674
H         -5.09422       -0.09459        1.81352
C         -5.59701        2.27219       -1.20420
H         -5.72290        2.94226       -2.05920
C         -6.49837        0.70203        0.36733
H         -7.33906        0.12180        0.75804
C         -6.69646        1.54995       -0.73057
C         -8.05279        1.68860       -1.35942
H         -7.99558        2.19618       -2.33273
H         -8.73105        2.27625       -0.71872
H         -8.52574        0.70687       -1.51521
C         -0.72333        2.01680       -1.20533
C         -0.81106        3.12220       -0.35537
H         -1.48853        3.09785        0.49938
C          0.13521        2.05294       -2.30243
H          0.20592        1.17410       -2.94296
C         -0.03266        4.24787       -0.61386
H         -0.10414        5.10562        0.06090
C          0.89892        3.18812       -2.54813
H          1.57881        3.19658       -3.40387
C          0.83199        4.30778       -1.71147
C          1.64036        5.53808       -2.00075
H          1.83468        6.11649       -1.08588
H          1.11404        6.20383       -2.70544
H          2.60968        5.28038       -2.45142
