106
Cat286.ts34.5.log	Energy: -1543198.8242359
C         -0.83131       -3.56627       -1.26253
H         -0.96400       -4.44088       -0.61900
H         -1.68833       -3.38110       -1.91996
C          0.48959       -3.35629       -1.81524
H          1.31575       -3.99438       -1.48763
H          0.56670       -3.11192       -2.88222
H          0.71181       -1.81086       -1.67324
Ir        -0.02234       -1.91322       -0.15684
C         -0.91602        1.07749       -1.82334
C         -3.05267       -0.84186       -1.74754
C         -2.35089        0.60940        0.63858
C          0.99811        0.84041        1.77736
C          2.99571       -1.20059        1.56130
C          2.43188        0.50152       -0.71600
P          1.60109       -0.44617        0.62030
P         -1.58108       -0.27823       -0.78043
C         -0.27676       -2.66995        1.54869
O         -0.42587       -3.09183        2.62079
C         -0.37310        0.74163       -3.07746
H         -0.46520       -0.28439       -3.44535
C         -0.74433        2.38965       -1.37816
H         -1.14123        2.69965       -0.41091
C          0.32293        1.66520       -3.83717
H          0.75304        1.39972       -4.80485
C         -0.02582        3.33039       -2.12339
H          0.10038        4.33743       -1.72440
C          0.52394        2.96897       -3.35526
O          1.26366        3.78473       -4.13298
C          1.53692        5.08029       -3.67918
H          2.09338        5.07045       -2.72486
H          2.15807        5.55897       -4.44669
H          0.61479        5.67314       -3.54611
H         -2.66059       -1.33443       -2.65384
H         -3.62428        0.03745       -2.08354
C         -3.91107       -1.81600       -0.95024
H         -3.24695       -2.51705       -0.41658
H         -4.46292       -1.26719       -0.16581
C         -4.91334       -2.61476       -1.78568
H         -4.33514       -3.16339       -2.55386
C         -5.62531       -3.64401       -0.91611
H         -4.90720       -4.31663       -0.42211
H         -6.31773       -4.26262       -1.50811
H         -6.21448       -3.14847       -0.12618
C         -5.91446       -1.71727       -2.50447
H         -6.63070       -2.31068       -3.09395
H         -5.42056       -1.01538       -3.19318
H         -6.49423       -1.12144       -1.77887
H         -1.52155        1.13074        1.14187
H         -2.64432       -0.18934        1.33679
C         -3.50362        1.56551        0.35381
H         -3.32150        2.11461       -0.58503
H         -4.43345        0.99347        0.18580
C         -3.74223        2.58524        1.47166
H         -2.80339        3.15814        1.59952
C         -4.84204        3.56425        1.08050
H         -4.60795        4.07462        0.13302
H         -4.98770        4.33607        1.85235
H         -5.80393        3.04129        0.94711
C         -4.04975        1.91514        2.80568
H         -4.23054        2.66597        3.59090
H         -3.22079        1.27321        3.13965
H         -4.95372        1.28700        2.73140
C          0.94973        2.20590        1.46012
H          1.38418        2.57198        0.52936
C          0.41193        0.43009        2.98079
H          0.39877       -0.62897        3.24997
C          0.31678        3.11664        2.29613
H          0.26535        4.17753        2.04310
C         -0.21244        1.33388        3.83680
H         -0.66521        0.96620        4.75777
C         -0.27930        2.68896        3.48884
O         -0.89677        3.63470        4.22256
C         -1.47660        3.26989        5.44527
H         -0.72854        2.86004        6.14628
H         -1.90274        4.18490        5.87558
H         -2.28404        2.52979        5.31161
H          2.54866       -1.63887        2.46931
H          3.67662       -0.39813        1.88672
C          3.70549       -2.27854        0.75704
H          2.93584       -2.96301        0.35960
H          4.19773       -1.82691       -0.12464
C          4.74462       -3.08433        1.53883
H          4.22824       -3.52349        2.41322
C          5.27342       -4.23023        0.68405
H          4.45656       -4.88222        0.33770
H          5.98977       -4.85293        1.24224
H          5.79352       -3.84467       -0.20910
C          5.88717       -2.21589        2.05385
H          6.62971       -2.81766        2.60074
H          5.53405       -1.42829        2.73640
H          6.41048       -1.72323        1.21642
H          1.63688        1.11776       -1.16579
H          2.67377       -0.24869       -1.48372
C          3.64839        1.34505       -0.35107
H          3.52969        1.77690        0.65688
H          4.54563        0.70305       -0.29433
C          3.90706        2.48757       -1.33804
H          2.99800        3.12073       -1.33763
C          5.07828        3.34550       -0.87688
H          4.91601        3.73803        0.13934
H          5.23836        4.20290       -1.54937
H          6.01193        2.75877       -0.86144
C          4.11177        1.98862       -2.76349
H          4.27726        2.82723       -3.45710
H          3.23760        1.43180       -3.13116
H          4.99040        1.32402       -2.82315
