90
Cat247.ts34.5.log	Energy: -1584670.8634771
C         -1.00524        0.06912       -3.36801
H         -0.75043       -0.72298       -4.07798
H         -2.07295        0.31049       -3.33778
C         -0.06489        1.15309       -3.23099
H          0.90119        1.10622       -3.74309
H         -0.46383        2.17488       -3.19964
H          0.03742        1.38793       -1.69021
Ir        -0.02918       -0.28393       -1.48466
C         -1.74263        1.59388        0.97261
C         -3.52391        0.18226       -0.80189
C         -2.21590       -1.25327        1.17561
C          2.05750       -1.52303        1.07852
C          3.42585       -0.02227       -0.93150
C          1.92886        1.35679        1.03666
P          1.80142       -0.11240       -0.06256
P         -1.84455        0.07510       -0.04752
C          0.34542       -2.10021       -1.82742
O          0.56881       -3.22146       -2.01231
C         -1.34617        1.57713        2.31409
C         -1.93430        2.83459        0.34512
C         -1.40464        3.99177        2.39762
C         -1.78762        4.02104        1.05589
C         -1.16971        2.76786        3.01768
H         -1.17877        0.62445        2.82070
H         -0.84705        2.73429        4.06072
H         -1.27709        4.92344        2.95393
H         -1.96286        4.97710        0.55635
H         -2.20957        2.86742       -0.71289
C         -3.83172       -0.78008       -1.77035
H         -3.06391       -1.49676       -2.07483
C         -4.51151        1.09221       -0.40937
H         -4.29036        1.83641        0.35963
C         -5.10577       -0.82215       -2.33033
H         -5.34296       -1.57936       -3.08177
C         -5.79140        1.06902       -0.97330
C         -6.83476        2.06567       -0.55664
H         -7.78613        1.57069       -0.30757
H         -6.51158        2.64319        0.32089
H         -7.04593        2.78162       -1.36790
C         -6.07584        0.09767       -1.94036
H         -7.07209        0.06097       -2.39042
C         -3.17934       -1.07108        2.17957
H         -3.69099       -0.11128        2.28384
C         -1.60279       -2.49589        1.03791
H         -0.85789       -2.62714        0.25081
C         -3.48749       -2.11987        3.03722
H         -4.23250       -1.97776        3.82415
C         -1.92032       -3.57109        1.87988
C         -1.24708       -4.89693        1.68413
H         -1.44170       -5.29183        0.67475
H         -0.15449       -4.79784        1.78173
H         -1.59385       -5.64065        2.41545
C         -2.86285       -3.36095        2.88777
H         -3.12199       -4.18257        3.56163
C          3.00264       -2.51828        0.80882
C          1.22245       -1.66195        2.19515
C          2.30432       -3.74085        2.77483
C          1.35284       -2.75610        3.04446
C          3.12067       -3.62299        1.65175
H          3.65252       -2.42908       -0.06425
H          3.86110       -4.39479        1.42847
H          2.40393       -4.60351        3.43810
H          0.69359       -2.84691        3.91087
H          0.46132       -0.90714        2.40040
C          3.50572       -0.39095       -2.27456
H          2.59035       -0.69707       -2.78987
C          4.58574        0.38515       -0.25933
H          4.52530        0.68552        0.79011
C          4.73762       -0.36192       -2.92963
H          4.80042       -0.65465       -3.98065
C          5.82346        0.42427       -0.90331
C          7.06120        0.86881       -0.17888
H          7.49652        1.76554       -0.64818
H          6.84664        1.10967        0.87154
H          7.83676        0.08672       -0.19601
C          5.88246        0.04165       -2.25164
H          6.84300        0.06651       -2.77472
C          2.43291        1.29902        2.33989
H          2.70742        0.34074        2.78422
C          1.59485        2.60087        0.49200
H          1.18513        2.64242       -0.52067
C          2.58905        2.47360        3.07520
H          2.97361        2.42399        4.09705
C          1.77100        3.78660        1.20644
C          1.46047        5.11503        0.58276
H          2.38422        5.61743        0.25056
H          0.80786        5.00200       -0.29375
H          0.96053        5.78701        1.29599
C          2.26563        3.70428        2.51426
H          2.39451        4.61951        3.09909
