70
Cat263.ts34.5.log	Energy: -1247395.8808446
C         -3.94096        0.44607        0.46913
H         -4.64162       -0.39186        0.52793
H         -4.03452        1.14692        1.30498
C         -3.70394        1.01051       -0.84143
H         -4.12889        0.52236       -1.72341
H         -3.71995        2.10380       -0.93824
H         -2.17083        1.25049       -0.85921
Ir        -1.98225       -0.23916       -0.09076
C          0.67549        1.84691        0.87465
C         -1.60116        2.10287        2.60651
C          0.10319       -0.21038        2.80179
C          1.26537       -1.48020       -0.88611
C         -0.67482       -1.98265       -2.86095
C          0.44022        0.69789       -2.54281
P         -0.25736       -0.71597       -1.57622
P         -0.71877        0.86474        1.54315
C         -2.36078       -2.06117        0.20391
O         -2.56685       -3.18681        0.39887
C          0.42596        3.09535        0.27764
H         -0.58223        3.51763        0.30162
C          1.97307        1.33639        0.78859
H          2.21224        0.35958        1.21297
C          1.42801        3.80101       -0.36801
H          1.23352        4.76976       -0.83223
C          2.99290        2.03191        0.13511
H          3.98580        1.58443        0.08509
C          2.72575        3.27261       -0.44974
O          3.63590        4.02046       -1.10659
C          4.93983        3.52969       -1.23418
H          4.96677        2.57207       -1.78466
H          5.50608        4.28000       -1.80050
H          5.42353        3.38439       -0.25192
H         -2.18902        2.73008        1.91678
C         -2.51931        1.44759        3.62932
H         -1.94945        0.97690        4.44394
H         -3.13863        0.66443        3.16723
H         -0.86664        2.76508        3.09287
H         -3.19262        2.18910        4.08599
H          0.72944       -0.91174        2.22954
C          0.90173        0.47551        3.89920
H          0.26620        1.10701        4.53749
H          1.69280        1.11880        3.48648
H         -0.71025       -0.82840        3.21489
H          1.38374       -0.26850        4.55322
C          2.55990       -1.20671       -1.35480
H          2.71499       -0.50267       -2.17382
C          1.13221       -2.39336        0.16297
H          0.13592       -2.62051        0.54953
C          3.67302       -1.80012       -0.77808
H          4.68203       -1.58056       -1.13286
C          2.23982       -3.00814        0.74641
H          2.08650       -3.71336        1.56358
C          3.52512       -2.70485        0.28277
O          4.65987       -3.22697        0.78521
C          4.57180       -4.13867        1.84490
H          4.00055       -5.04087        1.56420
H          5.59934       -4.43260        2.09347
H          4.10402       -3.68657        2.73733
H         -0.79794       -2.91717       -2.28883
C         -1.93231       -1.68848       -3.65995
H         -1.80573       -0.82056       -4.32426
H         -2.77132       -1.47578       -2.97894
H          0.20695       -2.12000       -3.51008
H         -2.20558       -2.54915       -4.28939
H          1.03803        0.26911       -3.36458
C         -0.55955        1.70439       -3.08445
H         -1.10314        2.19135       -2.26268
H         -1.30456        1.24621       -3.75060
H          1.14065        1.20782       -1.86233
H         -0.03571        2.49010       -3.65003
