110
Cat206.ts34.5.log	Energy: -1404105.0218108
C          0.44521        1.30779        2.80967
H          0.74624        0.71977        3.68187
H          1.10177        2.16441        2.62085
C         -0.97382        1.49563        2.60919
H         -1.67892        0.95888        3.25010
H         -1.33050        2.50743        2.37650
H         -1.15970        1.31416        1.06794
Ir        -0.05908        0.04178        1.14452
C          0.94180        2.64614       -1.20994
C          3.06290        1.56325        0.41900
C          1.99174        0.05104       -1.79444
C         -0.89424       -2.52650       -1.31339
C         -3.08675       -1.62959        0.33925
C         -2.02932        0.06379       -1.75509
P         -1.47928       -1.02745       -0.36394
P          1.44598        1.06438       -0.34229
C          0.56127       -1.50098        2.03704
O          0.96833       -2.40387        2.64088
H          0.10831        2.31412       -1.85857
C          1.99635        3.31474       -2.09417
H          2.39496        2.60918       -2.83907
H          2.85124        3.62676       -1.46885
C          1.43087        4.54259       -2.80525
H          2.21250        5.01415       -3.42317
H          0.63571        4.22053       -3.50253
C          0.85309        5.54692       -1.81582
H          0.41706        6.40744       -2.34892
H          1.67053        5.94996       -1.19059
C         -0.18830        4.89101       -0.91773
H         -1.05713        4.59279       -1.53076
H         -0.56720        5.61052       -0.17367
C          0.36918        3.65701       -0.21588
H          1.16355        3.96990        0.48647
H         -0.40846        3.17129        0.39187
H          3.79375        1.73564       -0.39002
H          2.88921        2.54545        0.89198
C          3.62246        0.60121        1.45688
H          2.84879        0.40908        2.21593
H          3.82308       -0.38028        0.99789
C          4.89030        1.11618        2.12266
H          4.68480        2.09757        2.58938
H          5.66458        1.30801        1.35659
C          5.44557        0.16529        3.17392
H          4.66618       -0.02596        3.93224
H          5.64592       -0.81388        2.70408
C          6.70697        0.67743        3.84994
H          7.08239       -0.03199        4.60307
H          6.52547        1.63766        4.35955
H          7.51422        0.84323        3.11800
H          1.07902       -0.15127       -2.38194
H          2.65090        0.65483       -2.43959
C          2.68099       -1.25587       -1.43464
H          3.66226       -1.03790       -0.98144
H          2.09827       -1.77333       -0.65327
C          2.88682       -2.17652       -2.62922
H          3.38837       -1.62343       -3.44428
H          1.90208       -2.47187       -3.03722
C          3.69253       -3.42486       -2.29746
H          4.70531       -3.12453       -1.97636
H          3.24239       -3.92317       -1.42108
C          3.78719       -4.40767       -3.45279
H          4.39080       -5.28948       -3.18990
H          4.24646       -3.94130       -4.33934
H          2.78871       -4.76667       -3.75243
H         -0.07112       -2.12875       -1.93469
C         -1.93923       -3.15081       -2.24392
H         -2.33480       -2.40697       -2.95173
H         -2.79768       -3.50208       -1.64531
C         -1.36832       -4.33523       -3.01969
H         -2.14646       -4.76453       -3.67175
H         -0.56451       -3.97684       -3.68869
C         -0.80594       -5.39495       -2.08204
H         -0.37431       -6.23070       -2.65646
H         -1.62967       -5.82173       -1.48128
C          0.23734       -4.78943       -1.15361
H          1.10572       -4.46822       -1.75381
H          0.61500       -5.54357       -0.44466
C         -0.30388       -3.58829       -0.38424
H         -1.08070       -3.93182        0.32274
H          0.49238       -3.14940        0.23008
H         -3.83379       -1.67345       -0.47203
H         -2.91189       -2.66993        0.66269
C         -3.60582       -0.82249        1.51824
H         -2.82736       -0.81896        2.29860
H         -3.73293        0.23509        1.22957
C         -4.91429       -1.35548        2.08243
H         -4.78405       -2.41542        2.36857
H         -5.68962       -1.35331        1.29390
C         -5.41538       -0.56658        3.28437
H         -4.63579       -0.57094        4.06660
H         -5.53853        0.49220        2.99444
C         -6.71992       -1.09580        3.85753
H         -7.05412       -0.50461        4.72365
H         -6.61485       -2.14130        4.18960
H         -7.52612       -1.07032        3.10651
H         -1.10972        0.32473       -2.30686
H         -2.65586       -0.52375       -2.44481
C         -2.76581        1.32988       -1.34969
H         -3.74174        1.06728       -0.90615
H         -2.19637        1.84023       -0.55453
C         -2.98304        2.29316       -2.50793
H         -3.50572        1.77712       -3.33381
H         -2.00002        2.58941       -2.91920
C         -3.76156        3.54138       -2.11679
H         -4.76803        3.24643       -1.77146
H         -3.27494        4.00970       -1.24296
C         -3.87804        4.55734       -3.24103
H         -4.45740        5.44104       -2.93378
H         -4.37495        4.12336       -4.12362
H         -2.88407        4.90791       -3.56425
