78
Cat244.ts34.5.log	Energy: -2639351.7468210
C         -0.72145       -2.55706       -2.31793
H         -0.54633       -3.61537       -2.10463
H         -1.74389       -2.33307       -2.63960
C          0.35359       -1.82670       -2.93813
H          1.32789       -2.30385       -3.08137
H          0.10230       -1.14945       -3.76376
H          0.41836       -0.47475       -2.15129
Ir         0.09647       -1.34042       -0.74133
C         -1.50667        1.82889       -0.91388
C         -3.32811       -0.38682       -1.18354
C         -2.35574        0.23278        1.33187
C          1.91004       -0.29052        2.09801
C          3.52309       -0.86203       -0.19129
C          2.06974        1.56942       -0.10053
P          1.86021       -0.21743        0.26899
P         -1.72936        0.08449       -0.39511
C          0.22582       -2.75993        0.49653
O          0.30215       -3.61874        1.26766
C         -1.22789        2.85690       -0.00570
C         -1.48790        2.12240       -2.28617
C         -0.99601        4.44099       -1.81763
C         -1.25385        3.41949       -2.73272
C         -0.96855        4.15067       -0.45599
H         -1.21530        2.64929        1.06635
H         -0.73791        4.93782        0.26549
H         -0.78919        5.45546       -2.16549
H         -1.26166        3.63260       -3.80462
H         -1.66351        1.32382       -3.01280
C         -4.20528        0.50225       -1.81366
H         -3.94373        1.55781       -1.91193
C         -3.70876       -1.73013       -1.05831
H         -3.03040       -2.43163       -0.56402
C         -5.42685        0.06262       -2.31935
H         -6.10916        0.75668       -2.81295
C         -4.92957       -2.17969       -1.54803
H         -5.22393       -3.22536       -1.44568
C         -5.78255       -1.27750       -2.18407
Cl        -7.29910       -1.82900       -2.81132
C         -3.37420        1.14110        1.65827
H         -3.78373        1.80345        0.89152
C         -1.87866       -0.62555        2.32250
H         -1.09373       -1.34105        2.07313
C         -3.87781        1.21386        2.95079
H         -4.66402        1.92518        3.20861
C         -2.38211       -0.57400        3.62098
H         -1.99849       -1.24243        4.39307
C         -3.37186        0.35385        3.92907
Cl        -3.98630        0.44761        5.54514
C          2.74596       -1.19141        2.76651
C          1.01140        0.48585        2.84195
C          1.80429       -0.51779        4.88919
C          0.96597        0.38060        4.22881
C          2.68846       -1.30552        4.15487
H          3.44525       -1.81024        2.20034
H          3.34279       -2.01647        4.66467
H          1.76406       -0.60649        5.97737
H          0.25883        0.99241        4.79385
H          0.33362        1.17305        2.33112
C          4.68760       -0.11474        0.02728
H          4.62360        0.88906        0.45379
C          3.63210       -2.13819       -0.74947
H          2.71526       -2.70984       -0.92521
C          5.93580       -0.63177       -0.30040
H          6.84484       -0.05113       -0.13558
C          4.87647       -2.67152       -1.07718
H          4.96335       -3.66924       -1.51036
C          6.02223       -1.91189       -0.85079
Cl         7.57370       -2.55848       -1.26234
C          2.46284        2.51728        0.85080
H          2.63846        2.21757        1.88572
C          1.87437        1.98594       -1.42228
H          1.55546        1.25952       -2.17303
C          2.62497        3.85617        0.50003
H          2.91085        4.59872        1.24674
C          2.05651        3.31149       -1.79098
H          1.89247        3.63319       -2.81962
C          2.41298        4.24512       -0.81944
Cl         2.55033        5.91527       -1.25600
