90
Cat215.ts34.5.log	Energy: -2643900.2246213
C         -0.64021        0.29778       -3.56603
H         -0.51811       -0.51839       -4.28428
H         -1.59947        0.81863       -3.65965
C          0.52353        1.12435       -3.31149
H          1.49329        0.83441       -3.72814
H          0.38255        2.21426       -3.34401
H          0.44804        1.35820       -1.82726
Ir         0.05032       -0.26763       -1.61233
C         -2.08127        1.94653        0.32056
C         -3.42592       -0.42401       -0.76254
C         -1.62916       -0.74524        1.36708
C          1.98454       -1.43781        1.30888
C          3.42555       -0.04748       -0.78875
C          1.64640        1.43092        0.89655
P          1.75924       -0.15855       -0.02214
P         -1.77723        0.18537       -0.20983
C          0.06818       -2.11531       -1.99852
O          0.00787       -3.24555       -2.24385
H         -1.16791        2.17617        0.90233
C         -3.30886        2.23493        1.18373
H         -3.34712        1.57700        2.06525
H         -4.21693        2.01803        0.59578
C         -3.33335        3.69917        1.61781
H         -4.22113        3.89099        2.24208
H         -2.45255        3.90894        2.25197
C         -3.31671        4.63186        0.41283
H         -3.29464        5.68376        0.74020
H         -4.25412        4.50087       -0.15751
C         -2.12914        4.33407       -0.49448
H         -1.19734        4.58743        0.04107
H         -2.15847        4.97317       -1.39198
C         -2.07737        2.86524       -0.90290
H         -2.94843        2.62222       -1.53910
H         -1.18033        2.66522       -1.50790
C         -3.63290       -0.73515       -2.10919
H         -2.79791       -0.63633       -2.80410
C         -4.48167       -0.62235        0.13994
H         -4.33315       -0.43415        1.20504
C         -4.86725       -1.19683       -2.56077
H         -5.02350       -1.44074       -3.61272
C         -5.71837       -1.08636       -0.29397
H         -6.53732       -1.24378        0.40977
C         -5.90640       -1.36326       -1.64886
Cl        -7.44405       -1.94097       -2.19532
C         -1.39560       -0.16409        2.61669
H         -1.39656        0.91973        2.73009
C         -1.63466       -2.14730        1.27623
H         -1.81299       -2.62218        0.30771
C         -1.12128       -0.95084        3.73723
H         -0.91543       -0.49166        4.70584
C         -1.38535       -2.94281        2.38505
H         -1.38466       -4.03078        2.30329
C         -1.10073       -2.33557        3.61084
Cl        -0.68413       -3.31906        4.97502
H          1.07274       -1.33367        1.92477
C          3.21893       -1.23923        2.19036
H          3.24317       -0.22845        2.62562
H          4.12190       -1.32630        1.56241
C          3.27894       -2.29377        3.29208
H          4.16966       -2.12766        3.91940
H          2.40163       -2.18593        3.95572
C          3.29200       -3.69773        2.70112
H          3.30866       -4.45384        3.50236
H          4.22129       -3.83616        2.11927
C          2.08702       -3.91429        1.79521
H          1.17315       -3.89374        2.41290
H          2.12547       -4.91105        1.32728
C          1.97550       -2.84570        0.71131
H          2.81923       -2.94557        0.00429
H          1.05811       -2.99992        0.12858
C          3.65958       -0.74896       -1.97680
H          2.82835       -1.29279       -2.43633
C          4.47434        0.68783       -0.22107
H          4.31160        1.25212        0.70009
C          4.91386       -0.73716       -2.58019
H          5.09708       -1.28731       -3.50453
C          5.72895        0.72166       -0.82206
H          6.54464        1.30058       -0.38595
C          5.94225        0.00262       -1.99823
Cl         7.50076        0.04093       -2.74986
C          1.28280        1.51408        2.24308
H          1.20059        0.61237        2.84889
C          1.76369        2.62512        0.16790
H          2.06784        2.58980       -0.88140
C          0.97623        2.74106        2.83341
H          0.66553        2.79524        3.87823
C          1.47570        3.85495        0.74304
H          1.55574        4.77664        0.16466
C          1.05078        3.90264        2.07268
Cl         0.58534        5.41868        2.76680
