90
Cat212.ts34.5.log	Energy: -1490610.0144028
C         -0.93395        0.62267       -3.34107
H         -0.68985       -0.03590       -4.18003
H         -1.98856        0.91885       -3.31596
C          0.03767        1.64925       -3.01238
H          1.01428        1.64628       -3.50682
H         -0.33964        2.67341       -2.87799
H          0.02173        1.65560       -1.51117
Ir         0.00603       -0.03293       -1.52579
C         -2.45016        1.35058        0.74465
C         -3.26673       -1.12988       -0.57895
C         -1.32678       -1.25078        1.44779
C          2.32992       -1.12025        1.12105
C          3.29256        0.83539       -0.78891
C          1.36229        1.63020        1.17019
P          1.74111        0.25165        0.01037
P         -1.77102       -0.21640       -0.00468
C          0.42832       -1.74377       -2.20217
O          0.62018       -2.80374       -2.62902
H         -1.58548        1.72768        1.32494
C         -3.66295        1.23475        1.66690
H         -3.49448        0.49347        2.46245
H         -4.52278        0.86978        1.07990
C         -4.01204        2.59062        2.27660
H         -4.88870        2.49208        2.93758
H         -3.17428        2.92676        2.91485
C         -4.27360        3.63350        1.19642
H         -4.48373        4.61597        1.64991
H         -5.18210        3.34880        0.63536
C         -3.09921        3.73196        0.22967
H         -2.21943        4.13279        0.76470
H         -3.32522        4.44459       -0.58043
C         -2.73195        2.37321       -0.35715
H         -3.55821        2.00201       -0.99117
H         -1.85010        2.46141       -1.00864
C         -3.48394       -1.30177       -1.94895
C         -4.18611       -1.68318        0.32531
C         -5.52998       -2.50663       -1.50585
C         -5.30998       -2.36346       -0.13517
C         -4.61210       -1.97958       -2.41095
H         -2.73816       -0.91869       -2.64683
H         -4.76505       -2.10672       -3.48540
H         -6.41095       -3.04374       -1.86599
H         -6.01522       -2.79247        0.58101
H         -4.00968       -1.60150        1.39973
C         -1.05279       -2.60676        1.20307
C         -1.17291       -0.76304        2.74963
C         -0.47896       -2.94731        3.52588
C         -0.74384       -1.60458        3.77919
C         -0.64332       -3.44740        2.23098
H         -1.15677       -2.99796        0.18727
H         -0.44220       -4.50044        2.02008
H         -0.14820       -3.60574        4.33249
H         -0.62388       -1.20308        4.78884
H         -1.37295        0.28521        2.97186
H          1.47861       -1.28361        1.80735
C          3.58473       -0.78951        1.93072
H          3.45544        0.13978        2.50631
H          4.41925       -0.60567        1.23315
C          3.95908       -1.94146        2.85859
H          4.86367       -1.68109        3.43208
H          3.15099       -2.09333        3.59741
C          4.17385       -3.22832        2.07184
H          4.41713       -4.06183        2.75083
H          5.04771       -3.10182        1.40728
C          2.94620       -3.56483        1.23522
H          2.10541       -3.80184        1.91002
H          3.12457       -4.46711        0.62826
C          2.52893       -2.41167        0.32765
H          3.30007       -2.24944       -0.44731
H          1.60240       -2.67095       -0.20037
C          3.60325        0.34994       -2.06444
C          4.18264        1.71658       -0.16061
C          5.67033        1.59965       -2.06146
C          5.36146        2.10005       -0.79671
C          4.79056        0.72162       -2.69269
H          2.88429       -0.30752       -2.56280
H          5.02293        0.33163       -3.68665
H          6.59546        1.90157       -2.55863
H          6.04386        2.79446       -0.30034
H          3.94887        2.11301        0.83012
C          1.17348        2.91291        0.63176
C          1.14183        1.44517        2.53814
C          0.51834        3.76868        2.79334
C          0.71545        2.50521        3.34189
C          0.76031        3.97144        1.43244
H          1.34931        3.07979       -0.43417
H          0.61938        4.96118        0.99154
H          0.18293        4.59671        3.42213
H          0.53858        2.33549        4.40697
H          1.28200        0.46372        2.99029
