102
Cat288.ts34.5.log	Energy: -1917060.2165015
C          0.62584        1.13497       -3.54887
H          0.03174        1.89939       -4.05572
H          1.68807        1.38441       -3.46590
C          0.25919       -0.24016       -3.74771
H         -0.64799       -0.49316       -4.30285
H          1.06026       -0.97499       -3.88937
H          0.27985       -0.89074       -2.29660
Ir        -0.36982        0.54351       -1.71482
C          2.80209       -0.35341       -0.23781
O          2.40474        2.18627       -0.64464
O          0.97625        1.05213        1.21712
C         -2.86613        0.06029        0.75640
O         -2.74136       -1.78744       -1.11601
O         -0.79705       -1.70026        0.57655
P         -1.70586       -0.69226       -0.39615
P          1.44664        0.84588       -0.37644
C         -1.57746        2.01879       -1.72402
O         -2.29442        2.92151       -1.69523
C          4.15163       -0.04898       -0.46596
H          4.43763        0.97541       -0.71063
C          2.44811       -1.67483        0.05078
H          1.39429       -1.92693        0.19763
C          5.11936       -1.03808       -0.38519
H          6.17385       -0.81784       -0.56222
C          3.41413       -2.67289        0.14836
H          3.10433       -3.69012        0.38885
C          4.76166       -2.35690       -0.06884
O          5.76875       -3.24692       -0.00449
C          5.47559       -4.57932        0.31210
H          4.80855       -5.04212       -0.43650
H          6.43100       -5.11892        0.31705
H          5.00819       -4.67113        1.30823
C          1.87720        3.39426       -1.02033
C          0.78125        3.94311       -0.35957
H          0.33145        3.39887        0.47278
C          2.48319        4.06826       -2.07980
H          3.34040        3.61428       -2.58019
C          0.25064        5.17263       -0.76601
C         -0.97110        5.71778       -0.08736
H         -1.15447        6.76555       -0.36341
H         -1.85620        5.12785       -0.37495
H         -0.88098        5.66014        1.00811
C          1.97151        5.30044       -2.47290
H          2.43901        5.83936       -3.30061
C          0.86160        5.84632       -1.82799
H          0.46178        6.80962       -2.15459
C          1.74575        1.08389        2.34734
C          3.05811        1.55082        2.36230
H          3.50510        1.92680        1.44248
C          1.13411        0.65089        3.52783
H          0.09878        0.30788        3.49640
C          3.79645        1.55088        3.55229
C          5.22030        2.02641        3.53925
H          5.65962        2.01646        4.54639
H          5.84082        1.38655        2.89133
H          5.29380        3.05228        3.14541
C          1.86126        0.66665        4.71250
H          1.38656        0.33284        5.63868
C          3.18709        1.10174        4.72668
H          3.75241        1.10116        5.66198
C         -2.35136        1.04224        1.61999
H         -1.29056        1.30270        1.56458
C         -4.22378       -0.25313        0.81199
H         -4.63129       -1.00353        0.13241
C         -3.17752        1.67445        2.53201
H         -2.79448        2.43566        3.21398
C         -5.06450        0.38661        1.72052
H         -6.12268        0.12586        1.74104
C         -4.54257        1.35152        2.59087
O         -5.26928        2.01925        3.50363
C         -6.63984        1.75054        3.61023
H         -6.83114        0.69786        3.88315
H         -7.02601        2.39933        4.40636
H         -7.17638        1.97827        2.67250
C         -2.35697       -2.43067       -2.26431
C         -1.24292       -3.26652       -2.26505
H         -0.68903       -3.41032       -1.33503
C         -3.08778       -2.21232       -3.43073
H         -3.94506       -1.53809       -3.40311
C         -0.82512       -3.89163       -3.44525
C          0.38943       -4.77421       -3.43415
H          0.20225       -5.69794       -2.86281
H          0.68758       -5.06396       -4.45133
H          1.24323       -4.26697       -2.95786
C         -2.68629       -2.84645       -4.60245
H         -3.24858       -2.68242       -5.52487
C         -1.56161       -3.67237       -4.61373
H         -1.24848       -4.15135       -5.54494
C         -1.19883       -2.41213        1.67433
C         -0.29307       -2.46964        2.73425
H          0.65134       -1.93031        2.64022
C         -2.41794       -3.08610        1.74221
H         -3.10797       -3.05471        0.89967
C         -0.59288       -3.18725        3.89365
C          0.39825       -3.25692        5.01938
H          1.07916       -2.39359        5.00744
H         -0.10503       -3.28972        5.99691
H          1.01842       -4.16566        4.94173
C         -2.72068       -3.79704        2.90257
H         -3.67664       -4.32210        2.97130
C         -1.82660       -3.84702        3.96855
H         -2.08620       -4.40602        4.87141
