78
Cat297.ts34.5.log	Energy: -1515607.5751276
C          1.77128       -2.14082       -1.73629
H          1.48941       -2.42308       -2.75442
H          2.76269       -1.68240       -1.65834
C          1.34669       -3.00948       -0.67038
H          0.69571       -3.86046       -0.88923
H          2.06511       -3.22383        0.12923
H          0.74804       -2.03964        0.46582
Ir         0.12734       -1.10042       -0.78209
C          3.21825        0.25473        0.20455
O          1.66243        1.92545       -1.07932
O          1.03533        1.35029        1.33455
C         -2.69665        0.76765        0.11736
O         -2.97707       -1.82415        0.34132
O         -1.43301       -0.65585        2.05200
P         -1.74109       -0.74538        0.45474
P          1.45486        0.62684       -0.08533
C         -0.85107       -0.88787       -2.39523
O         -1.44112       -0.72279       -3.37541
C          3.53173       -0.67297        1.20793
H          2.72924       -1.09006        1.82367
C          4.24508        0.76990       -0.59235
H          3.99756        1.49026       -1.37401
C          4.84681       -1.06869        1.42639
H          5.11150       -1.78571        2.20563
C          5.56634        0.37677       -0.38821
H          6.38260        0.76787       -0.99846
C          5.84844       -0.53604        0.62018
F          7.10836       -0.91576        0.81953
C          0.78021        2.19031       -2.17767
H         -0.17739        1.67693       -1.98198
C          1.38648        1.62605       -3.44558
H          1.55858        0.54606       -3.33032
H          2.34728        2.11642       -3.66883
H          0.70960        1.77508       -4.29984
C          0.54744        3.68441       -2.23473
H          0.06496        4.04149       -1.31386
H          1.49985        4.22215       -2.36051
H         -0.10895        3.93534       -3.08092
C          1.80334        2.42016        1.90310
H          2.71793        2.56102        1.30079
C          2.19007        2.02154        3.31211
H          2.81321        1.11645        3.30127
H          1.28929        1.81435        3.90904
H          2.75789        2.82713        3.80149
C          0.98407        3.69435        1.84854
H          0.73132        3.94011        0.80824
H          0.05147        3.58149        2.42334
H          1.54925        4.53694        2.27451
C         -2.06874        1.99992        0.34715
H         -1.05948        2.01671        0.76704
C         -3.98115        0.74191       -0.43222
H         -4.46672       -0.21927       -0.60805
C         -2.71731        3.19109        0.04338
H         -2.24909        4.16128        0.22065
C         -4.63633        1.93022       -0.74957
H         -5.63795        1.93467       -1.18331
C         -3.99493        3.13800       -0.50619
F         -4.61686        4.27566       -0.80683
C         -2.76344       -3.16377       -0.11902
H         -1.96605       -3.12354       -0.88496
C         -4.05821       -3.62288       -0.75154
H         -4.33687       -2.95881       -1.58264
H         -4.87500       -3.61905       -0.01294
H         -3.95275       -4.64426       -1.14637
C         -2.29521       -4.04626        1.02059
H         -1.36558       -3.65185        1.45728
H         -3.05476       -4.10387        1.81536
H         -2.09842       -5.06649        0.65751
C         -2.39924       -0.24006        3.02399
H         -3.22309        0.28269        2.50550
C         -1.70427        0.73586        3.94942
H         -1.32370        1.59505        3.38004
H         -0.84963        0.24800        4.44251
H         -2.39669        1.10057        4.72261
C         -2.95717       -1.45659        3.73385
H         -3.47898       -2.10698        3.01953
H         -2.14478       -2.03152        4.20436
H         -3.66932       -1.15412        4.51639
