102
Cat287.ts34.5.log	Energy: -1916965.5758497
C          1.30783        0.07372       -3.47592
H          1.11593        0.90082       -4.16570
H          2.36732       -0.18499       -3.37331
C          0.35260       -1.00739       -3.46658
H         -0.56139       -0.93268       -4.06456
H          0.74767       -2.03140       -3.44839
H          0.10851       -1.31587       -1.95784
Ir         0.17545        0.34069       -1.67240
C          1.49621       -1.45393        1.07165
C          3.45628       -0.68209       -0.89526
C          2.46903        1.25560        0.94635
C         -1.92941        1.39403        0.89801
C         -3.33301        0.33243       -1.38236
C         -2.11862       -1.46475        0.43301
P         -1.77587        0.13397       -0.41763
P          1.88419       -0.12056       -0.12666
C         -0.11096        2.18322       -1.94120
O         -0.26554        3.32188       -2.09357
C          1.02732       -2.68124        0.57216
H          0.93829       -2.81923       -0.50860
C          1.53031       -1.28845        2.45648
H          1.87810       -0.34591        2.88355
C          0.64786       -3.70754        1.41813
H          0.27987       -4.65780        1.02932
C          1.10770       -2.29849        3.32355
H          1.12646       -2.11579        4.39832
C          0.66749       -3.51874        2.80625
O          0.22373       -4.55169        3.55386
C          0.14652       -4.38887        4.93983
H         -0.52601       -3.55754        5.21834
H         -0.25794       -5.32453        5.34716
H          1.13780       -4.20460        5.39130
C          3.95067       -1.98295       -0.81402
H          3.44132       -2.70581       -0.17379
C          4.14677        0.25081       -1.69831
O          3.63787        1.49530       -1.71136
C          4.10172        2.43717       -2.63249
H          5.14813        2.72854       -2.43178
H          3.45798        3.31905       -2.52254
H          4.02476        2.06265       -3.66836
C          5.09042       -2.37050       -1.52039
H          5.45857       -3.39576       -1.44033
C          5.28653       -0.13257       -2.41136
H          5.81508        0.58949       -3.03479
C          5.75320       -1.44405       -2.31933
H          6.64535       -1.73567       -2.87898
C          1.79621        2.47449        0.92140
H          0.92162        2.56239        0.27545
C          3.62048        1.13752        1.75654
O          4.23961       -0.05660        1.75409
C          5.43908       -0.22649        2.44870
H          6.21355        0.48179        2.10613
H          5.77516       -1.24968        2.23806
H          5.30504       -0.10924        3.53903
C          2.22037        3.56071        1.68617
H          1.66416        4.49941        1.65459
C          4.05691        2.22584        2.51966
H          4.94471        2.14004        3.14681
C          3.35219        3.42964        2.48215
H          3.70255        4.27075        3.08600
C         -1.02678        1.38057        1.97331
H         -0.29013        0.57839        2.05339
C         -2.81228        2.46842        0.79468
H         -3.50785        2.52171       -0.04559
C         -1.03402        2.38327        2.92858
H         -0.32631        2.37824        3.75937
C         -2.81656        3.49708        1.73762
H         -3.51457        4.32543        1.61399
C         -1.92907        3.45599        2.81739
O         -1.85479        4.39878        3.78048
C         -2.70269        5.50802        3.70083
H         -3.76773        5.21765        3.74565
H         -2.47327        6.14411        4.56544
H         -2.53532        6.08916        2.77643
C         -3.25307        0.59654       -2.74766
H         -2.25003        0.72052       -3.17006
C         -4.60662        0.16246       -0.79685
O         -4.63454       -0.06420        0.52729
C         -5.84490       -0.34521        1.16585
H         -6.53950        0.51257        1.12780
H         -5.59872       -0.55940        2.21353
H         -6.34166       -1.22871        0.72834
C         -4.39701        0.69172       -3.54012
H         -4.30990        0.90305       -4.60783
C         -5.75743        0.24762       -1.58825
H         -6.74464        0.11614       -1.14432
C         -5.64505        0.51106       -2.95375
H         -6.55304        0.57760       -3.55879
C         -2.26497       -1.59445        1.81284
H         -2.16920       -0.71032        2.44349
C         -2.29170       -2.61296       -0.36755
O         -2.15636       -2.43432       -1.69590
C         -2.39561       -3.49563       -2.57229
H         -1.68646       -4.32775       -2.41522
H         -2.25840       -3.09804       -3.58573
H         -3.42561       -3.88099       -2.47481
C         -2.56299       -2.82307        2.40092
H         -2.66540       -2.89618        3.48572
C         -2.60279       -3.84513        0.21541
H         -2.74033       -4.73063       -0.40561
C         -2.73275       -3.94571        1.59967
H         -2.96116       -4.91498        2.04879
