78
Cat299.ts34.5.log	Energy: -1610549.9664468
C         -1.13689       -0.44780       -3.44191
H         -0.81274       -1.29021       -4.05971
H         -2.22461       -0.35682       -3.35471
C         -0.36255        0.76394       -3.53021
H          0.56230        0.77826       -4.11466
H         -0.90367        1.71575       -3.59937
H         -0.21050        1.22829       -2.03405
Ir        -0.00966       -0.38674       -1.61267
C         -1.91584        1.51833        0.66463
C         -3.50258       -0.40571       -0.77746
C         -1.88170       -1.31362        1.29242
C          1.95798       -0.90348        1.25392
C          3.43612        0.04226       -0.99690
C          1.83246        1.87641        0.49119
P          1.77065        0.17661       -0.21618
P         -1.80302       -0.13522       -0.12062
C          0.66213       -2.13960       -1.80534
O          1.07717       -3.21572       -1.90823
C         -1.51497        1.77369        1.98037
H         -1.25376        0.94354        2.63858
C         -2.25450        2.60979       -0.15105
H         -2.54834        2.43715       -1.19026
C         -1.43796        3.07619        2.47086
H         -1.10309        3.28413        3.48843
C         -2.21035        3.91158        0.33197
H         -2.47607        4.76483       -0.29492
C         -1.78558        4.12927        1.63876
F         -1.69559        5.37908        2.09153
C         -3.69073       -1.54849       -1.56713
C         -4.60395        0.40629       -0.48603
C         -6.04548       -1.05171       -1.76848
C         -5.86677        0.08609       -0.98455
C         -4.95367       -1.87219       -2.05398
H         -2.82969       -2.18346       -1.79542
H         -5.08533       -2.76837       -2.66509
H         -7.03588       -1.30069       -2.15698
H         -6.71833        0.73016       -0.75127
H         -4.48174        1.29292        0.13983
C         -1.06508       -2.44570        1.28645
C         -2.81362       -1.14907        2.32759
C         -2.06826       -3.20925        3.34545
C         -2.89630       -2.08464        3.35449
C         -1.16156       -3.39281        2.30524
H         -0.34730       -2.57408        0.47466
H         -0.51306       -4.27156        2.28887
H         -2.13694       -3.94588        4.14965
H         -3.62094       -1.94361        4.16024
H         -3.48574       -0.28696        2.32615
C          2.58916       -2.14677        1.11546
H          3.05994       -2.41862        0.16789
C          1.34955       -0.59074        2.47556
H          0.83819        0.36498        2.59727
C          2.61673       -3.05331        2.17130
H          3.10051       -4.02684        2.07415
C          1.38007       -1.48229        3.54267
H          0.89940       -1.25188        4.49472
C          2.01081       -2.70741        3.37320
F          2.02443       -3.57748        4.38145
C          3.52373       -0.14238       -2.37808
C          4.61375        0.14379       -0.24408
C          5.93461       -0.11427       -2.24986
C          5.85506        0.06407       -0.86728
C          4.76839       -0.21783       -3.00348
H          2.59365       -0.24214       -2.94607
H          4.82425       -0.36526       -4.08466
H          6.91064       -0.17747       -2.73724
H          6.76757        0.13935       -0.27096
H          4.56402        0.27456        0.83903
C          1.17101        2.91215       -0.17286
C          2.57428        2.18166        1.64181
C          1.96773        4.51265        1.44938
C          2.63445        3.48790        2.12023
C          1.24206        4.22132        0.29742
H          0.58091        2.67956       -1.06125
H          0.71072        5.01546       -0.23154
H          2.00933        5.53656        1.82801
H          3.20837        3.70591        3.02415
H          3.09972        1.39256        2.18300
