58
Cat262.ts34.5.log	Energy: -1148800.7022880
C          4.13083        0.93544       -0.40531
H          4.84537        0.22880       -0.83698
H          4.10351        1.89698       -0.92979
C          4.02464        0.95449        1.03661
H          4.57210        0.21039        1.62209
H          3.99711        1.93157        1.53449
H          2.48419        1.00564        1.31578
Ir         2.27644       -0.06327        0.01734
C         -0.77542        1.77134       -0.39262
C          1.51534        3.26764       -1.10817
C          0.65657        1.17869       -2.81036
C         -0.93688       -1.46248        0.67565
C          1.23029       -3.01638        1.61719
C          0.53858       -0.63600        3.00744
P          0.77390       -1.26555        1.30495
P          0.92149        1.52577       -1.02935
C          2.63474       -1.57497       -1.04483
O          2.79497       -2.51125       -1.71154
C         -0.94523        2.19550        0.93602
H         -0.06336        2.42080        1.54391
C         -1.92096        1.47680       -1.13224
H         -1.83783        1.13862       -2.16624
C         -2.20520        2.30830        1.50139
H         -2.33965        2.62709        2.53702
C         -3.19534        1.57379       -0.57454
H         -4.06105        1.30109       -1.17785
C         -3.34459        1.97235        0.75489
O         -4.52782        2.03288        1.39855
C         -5.68813        1.67467        0.69794
H         -5.63690        0.63929        0.31738
H         -6.52108        1.75541        1.40793
H         -5.87838        2.35512       -0.15125
H          1.60901        3.66520       -0.08739
H          2.50971        3.29196       -1.57771
H          0.82407        3.90366       -1.68135
H          0.04634        1.94440       -3.31470
H          1.64943        1.12956       -3.27971
H          0.18940        0.19022       -2.92142
C         -2.08036       -1.25198        1.45698
H         -1.99109       -0.94322        2.49966
C         -1.11217       -1.84546       -0.65708
H         -0.23361       -1.99901       -1.29095
C         -3.35069       -1.40374        0.92192
H         -4.24056       -1.21567        1.52544
C         -2.38241       -2.01289       -1.20613
H         -2.47632       -2.30518       -2.25234
C         -3.51280       -1.77227       -0.41725
O         -4.78638       -1.83603       -0.86643
C         -5.01137       -2.20034       -2.19952
H         -4.62394       -3.21039       -2.41985
H         -6.09858       -2.19769       -2.34870
H         -4.55227       -1.48451       -2.90461
H          1.33341       -3.53328        0.65267
H          2.20654       -3.04159        2.12257
H          0.47028       -3.52814        2.22724
H         -0.08135       -1.30598        3.62174
H          1.53449       -0.54521        3.46308
H          0.08159        0.36218        2.96809
