90
Cat245.ts34.5.log	Energy: -1584670.4102082
C         -0.80829       -2.06197       -2.69988
H         -0.59033       -3.13384       -2.69947
H         -1.85328       -1.82226       -2.92296
C          0.21031       -1.18652       -3.22220
H          1.18895       -1.59028       -3.49964
H         -0.10582       -0.37884       -3.89427
H          0.27874       -0.00646       -2.20182
Ir         0.06026       -1.13232       -0.96501
C         -1.63396        1.94920       -0.45198
C         -3.40520       -0.23557       -1.06570
C         -2.32366       -0.06919        1.48321
C          2.00319       -0.55968        1.91916
C          3.50073       -0.66437       -0.51282
C          2.01454        1.67517        0.10300
P          1.85645       -0.15259        0.13906
P         -1.78530        0.13067       -0.26634
C          0.29609       -2.74557       -0.01742
O          0.43773       -3.72721        0.57976
C         -1.34772        2.79548        0.62508
C         -1.68945        2.50031       -1.74155
C         -1.26501        4.70598       -0.85381
C         -1.52529        3.86753       -1.93876
C         -1.15851        4.16212        0.42361
H         -1.27937        2.38599        1.63515
H         -0.92864        4.80507        1.27656
H         -1.13200        5.77957       -1.00829
H         -1.59378        4.28138       -2.94803
H         -1.87177        1.84737       -2.59991
C         -3.74930       -1.59002       -1.18008
H         -3.03308       -2.34853       -0.85081
C         -4.33426        0.72186       -1.48239
H         -4.10751        1.78593       -1.38853
C         -4.98143       -1.97036       -1.69721
H         -5.22751       -3.03371       -1.76948
C         -5.56446        0.33260       -2.01123
H         -6.27556        1.10000       -2.33061
C         -5.91130       -1.01591       -2.13158
C         -7.22497       -1.43558       -2.72290
H         -7.93716       -0.59907       -2.75969
H         -7.09407       -1.80524       -3.75363
H         -7.68378       -2.25129       -2.14381
C         -3.37298        0.70100        2.00947
H         -3.85451        1.46171        1.38959
C         -1.75224       -1.05296        2.28730
H         -0.94239       -1.66366        1.88555
C         -3.81053        0.50306        3.31160
H         -4.62550        1.11800        3.70457
C         -2.20254       -1.25539        3.59233
H         -1.73139       -2.02970        4.20372
C         -3.23224       -0.48140        4.12921
C         -3.72641       -0.69739        5.52945
H         -4.75891       -1.08318        5.52895
H         -3.09989       -1.41960        6.07124
H         -3.73569        0.24398        6.10094
C          2.87751       -1.55545        2.36736
C          1.14419        0.05683        2.83826
C          2.05166       -1.29028        4.62437
C          1.17529       -0.29862        4.18321
C          2.89675       -1.92026        3.71291
H          3.54707       -2.04983        1.66025
H          3.58067       -2.70300        4.04958
H          2.07205       -1.57502        5.67911
H          0.49766        0.19193        4.88583
H          0.43848        0.81651        2.49568
C          3.60345       -1.82022       -1.28903
H          2.68898       -2.37684       -1.51697
C          4.66621        0.05824       -0.22473
H          4.60951        0.97078        0.37344
C          4.84327       -2.25148       -1.75831
H          4.90278       -3.16308       -2.35956
C          5.89836       -0.37411       -0.70001
H          6.79704        0.20373       -0.46525
C          6.01082       -1.53679       -1.47610
C          7.34358       -1.97831       -2.00531
H          8.12672       -1.90165       -1.23589
H          7.31273       -3.01766       -2.36125
H          7.65943       -1.34632       -2.85193
C          2.49565        2.43010        1.17744
H          2.75562        1.94153        2.11861
C          1.70881        2.33753       -1.09132
H          1.31838        1.76479       -1.93553
C          2.64813        3.81096        1.06056
H          3.01654        4.38280        1.91702
C          1.88282        3.70933       -1.20780
H          1.63296        4.20215       -2.15077
C          2.34434        4.47550       -0.13008
C          2.46525        5.96523       -0.24868
H          2.94455        6.25666       -1.19553
H          1.46824        6.43711       -0.23341
H          3.04894        6.39348        0.57831
