90
Cat246.ts34.5.log	Energy: -1584662.6469874
C          1.16682       -3.05870       -0.69996
H          0.91090       -3.57428       -1.62989
H          2.24351       -2.98998       -0.51194
C          0.29932       -3.26512        0.42674
H         -0.62316       -3.83760        0.29637
H          0.76512       -3.41466        1.40826
H          0.03125       -1.81310        1.03500
Ir         0.01307       -1.23794       -0.54458
C          2.95430       -1.04092        1.30658
C          3.21804        0.22732       -1.24993
C          1.78926        1.60362        0.86218
C         -2.06534        1.62422       -1.00887
C         -3.41517       -0.92327       -0.49514
C         -2.20393        0.59197        1.65596
P         -1.89562        0.04111       -0.07560
P          1.97778       -0.05475        0.09179
C         -0.49596       -1.34418       -2.35233
O         -0.80594       -1.47560       -3.46210
C          2.35918       -1.42591        2.51952
C          4.22170       -1.55459        1.00168
C          4.29341       -2.74981        3.10383
C          4.88230       -2.40209        1.89110
C          3.02607       -2.25693        3.41507
H          1.35007       -1.08510        2.76251
H          2.54503       -2.53212        4.35688
H          4.81352       -3.41147        3.80037
H          5.86840       -2.79276        1.62831
H          4.69763       -1.29471        0.05408
C          2.96476       -0.40917       -2.46965
H          2.05871       -1.01252       -2.55396
C          4.37726        1.02816       -1.11122
C          4.75016        1.75693        0.14763
H          4.59169        1.14607        1.04598
H          4.14582        2.66825        0.27681
H          5.80766        2.05462        0.11555
C          3.82143       -0.27213       -3.55748
H          3.59515       -0.78069       -4.49728
C          5.22267        1.15528       -2.22151
H          6.11977        1.77305       -2.12417
C          4.95718        0.52121       -3.43213
H          5.64216        0.64728       -4.27430
C          2.01815        1.81562        2.22806
H          2.42785        1.01015        2.83987
C          1.30721        2.66723        0.06619
C          1.12457        2.53903       -1.41433
H          0.70317        1.55847       -1.68423
H          2.09024        2.62532       -1.93780
H          0.45542        3.32133       -1.79538
C          1.74663        3.04257        2.82365
H          1.93151        3.18106        3.89155
C          1.03678        3.89174        0.68930
H          0.65205        4.71086        0.07574
C          1.24288        4.08653        2.05141
H          1.01765        5.05383        2.50680
C         -1.98934        1.62765       -2.41097
C         -2.18011        2.85174       -0.34578
C         -2.22517        4.03254       -2.45598
C         -2.25959        4.04466       -1.06409
C         -2.08455        2.81748       -3.12663
H         -1.84010        0.69669       -2.95866
H         -2.03280        2.79349       -4.21761
H         -2.29429        4.96705       -3.01785
H         -2.34783        4.99053       -0.52399
H         -2.19661        2.88344        0.74471
C         -4.16334       -0.61912       -1.63838
H         -3.90087        0.24801       -2.24395
C         -3.79495       -2.02887        0.30213
C         -3.09792       -2.39990        1.57747
H         -3.41593       -1.75215        2.41002
H         -2.00879       -2.29082        1.48914
H         -3.32447       -3.43925        1.85375
C         -5.25918       -1.38835       -2.01740
H         -5.82053       -1.12489       -2.91676
C         -4.90027       -2.78764       -0.09988
H         -5.19290       -3.64391        0.51438
C         -5.63009       -2.48407       -1.24530
H         -6.48560       -3.10125       -1.52962
C         -1.10740        0.54480        2.51899
H         -0.16245        0.18413        2.11422
C         -3.44739        1.06966        2.13619
C         -4.68942        1.18086        1.29956
H         -5.17100        0.20004        1.16367
H         -4.48258        1.57000        0.29424
H         -5.41446        1.84918        1.78474
C         -1.19933        0.94434        3.84789
H         -0.31781        0.90771        4.49175
C         -3.52079        1.45680        3.48069
H         -4.47684        1.82429        3.86357
C         -2.42141        1.39622        4.33359
H         -2.52280        1.71248        5.37470
