62
Cat234.ts34.5.log	Energy: -1103760.0431335
C          3.42156        0.63271        0.18721
H          4.15801        0.07899       -0.40224
H          3.52508        1.71914        0.09831
C          3.09790        0.10436        1.49369
H          3.49781       -0.86789        1.79605
H          3.06260        0.80707        2.33617
H          1.55587        0.26769        1.57775
Ir         1.46810       -0.23563       -0.02950
C         -1.17309        1.96707        0.65025
C          1.14709        3.32558       -0.36038
C         -0.52351        1.81089       -2.15589
C         -1.76709       -1.65210       -0.55166
C          0.09610       -3.43116        0.56121
C         -1.08529       -1.32736        2.21272
P         -0.30100       -1.62216        0.56537
P          0.24700        1.70889       -0.48111
C          1.93472       -1.30081       -1.51250
O          2.19845       -1.94874       -2.43821
C         -2.47646        1.58390        0.30682
C         -0.93477        2.42086        1.95696
C         -3.26044        2.10770        2.53498
C         -1.96612        2.49536        2.88793
C         -3.50906        1.65214        1.24224
H         -2.69518        1.20358       -0.69242
H         -4.51545        1.33907        0.95310
H         -4.06972        2.15997        3.26698
H         -1.75793        2.85174        3.89987
H          0.07864        2.70001        2.25778
H          1.69218        3.30035        0.59714
C          2.12081        3.53695       -1.51166
H          1.59539        3.74929       -2.45443
H          2.74418        2.64547       -1.67675
H          0.42033        4.15114       -0.29201
H          2.78917        4.38790       -1.30967
H         -1.16234        0.91863       -2.24432
C         -1.28484        3.07991       -2.50579
H         -0.62939        3.96336       -2.51385
H         -2.09662        3.28069       -1.79115
H          0.30930        1.63076       -2.85464
H         -1.73566        2.99866       -3.50745
C         -1.53558       -1.62994       -1.93381
C         -3.08976       -1.70498       -0.09511
C         -3.91152       -1.68210       -2.36907
C         -4.15329       -1.71242       -0.99703
C         -2.59750       -1.65020       -2.83540
H         -0.50961       -1.57941       -2.30573
H         -2.39543       -1.63181       -3.90908
H         -4.74586       -1.68617       -3.07457
H         -5.17945       -1.74155       -0.62193
H         -3.30699       -1.72231        0.97365
H          0.26298       -3.67005       -0.50219
C          1.31570       -3.81616        1.38028
H          1.14261       -3.69674        2.46012
H          2.17357       -3.18416        1.10160
H         -0.80618       -3.98384        0.87404
H          1.58720       -4.86807        1.20356
H         -1.72556       -2.19818        2.43194
C         -0.13887       -1.05890        3.36986
H          0.45046       -0.14936        3.18696
H          0.56692       -1.88417        3.54130
H         -1.75056       -0.45963        2.07704
H         -0.71155       -0.90512        4.29718
