78
Cat241.ts34.5.log	Energy: -1486060.9859065
C         -0.93663       -1.81968       -2.79470
H         -0.63810       -2.86446       -2.91981
H         -2.01355       -1.65090       -2.89930
C         -0.04306       -0.81642       -3.31544
H          0.93264       -1.10847       -3.71617
H         -0.48275        0.01931       -3.87412
H          0.03240        0.26466       -2.19396
Ir         0.01898       -0.98294       -1.05838
C         -1.83887        1.88051       -0.09370
C         -3.49871       -0.37848       -0.76870
C         -2.20060       -0.35992        1.68251
C          2.15419       -0.51742        1.70200
C          3.45255       -0.31423       -0.83551
C          1.88806        1.86294        0.09784
P          1.83442        0.02922       -0.01690
P         -1.84157        0.04746       -0.07936
C          0.45755       -2.65402       -0.30121
O          0.72262       -3.67348        0.17827
C         -1.52368        2.64272        1.03655
C         -2.03446        2.54138       -1.31626
C         -1.67478        4.68064       -0.25462
C         -1.97244        3.92896       -1.39224
C         -1.43515        4.03174        0.95363
H         -1.35157        2.14854        1.99505
H         -1.17766        4.60915        1.84454
H         -1.61465        5.76978       -0.31522
H         -2.14817        4.42747       -2.34890
H         -2.24258        1.95841       -2.21809
C         -3.74735       -1.74274       -0.97542
C         -4.52108        0.54154       -1.02540
C         -5.99995       -1.25195       -1.69425
C         -5.76186        0.10552       -1.49078
C         -4.98946       -2.17666       -1.42885
H         -2.94965       -2.46354       -0.77338
H         -5.16788       -3.24393       -1.58091
H         -6.97298       -1.59059       -2.05816
H         -6.55036        0.83591       -1.68909
H         -4.35565        1.60745       -0.85575
C         -1.46906       -1.35329        2.33326
C         -3.26179        0.26096        2.35928
C         -2.82092       -1.08406        4.31631
C         -3.56395       -0.09277        3.66975
C         -1.77850       -1.71587        3.64511
H         -0.65042       -1.84181        1.80285
H         -1.19183       -2.49315        4.14014
H         -3.06356       -1.36596        5.34398
H         -4.39032        0.39944        4.18839
H         -3.85940        1.02301        1.85252
C          3.09337       -1.51671        1.97906
C          1.36434       -0.01642        2.74506
C          2.46849       -1.48171        4.31439
C          1.52798       -0.48765        4.04412
C          3.24479       -1.99799        3.27866
H          3.70972       -1.92298        1.17421
H          3.97834       -2.78195        3.48112
H          2.59279       -1.85703        5.33301
H          0.90361       -0.08625        4.84565
H          0.60894        0.74460        2.53757
C          3.54481       -1.37176       -1.74431
C          4.59668        0.44133       -0.54731
C          5.89757       -0.92572       -2.05676
C          5.81118        0.13651       -1.15537
C          4.76333       -1.67952       -2.34942
H          2.63942       -1.94586       -1.96486
H          4.82337       -2.51112       -3.05573
H          6.85185       -1.16183       -2.53413
H          6.69694        0.73402       -0.92618
H          4.53783        1.27842        0.15192
C          1.41022        2.60234       -0.98926
C          2.46132        2.54325        1.17975
C          2.08492        4.66021        0.07681
C          2.55164        3.93457        1.17041
C          1.51638        3.98922       -1.00467
H          0.94190        2.07931       -1.82600
H          1.13633        4.54997       -1.86101
H          2.15806        5.75043        0.06946
H          2.99685        4.45211        2.02375
H          2.84284        1.98547        2.03731
