90
Cat282.ts34.5.log	Energy: -2971728.7401742
C         -0.56498       -1.90630       -3.33598
H         -0.21493       -2.90305       -3.61703
H         -1.65129       -1.78058       -3.36531
C          0.26854       -0.79226       -3.69685
H          1.25264       -0.97355       -4.13708
H         -0.21631        0.10547       -4.09828
H          0.36589        0.09805       -2.42260
Ir         0.36695       -1.30324       -1.47994
C         -1.88233        1.01094        0.13031
O         -2.94363       -1.01852       -1.31937
O         -1.78441       -1.56240        0.95883
C          3.17592       -1.63822        0.60876
O          3.14127        0.37780       -1.23411
O          1.85780        0.56752        0.99195
P          2.09262       -0.49843       -0.28304
P         -1.56332       -0.67966       -0.44367
C          0.79212       -3.09603       -1.00427
O          1.00908       -4.18753       -0.71420
C         -2.29681        1.99355       -0.78464
H         -2.51130        1.72395       -1.82199
C         -1.58809        1.39725        1.43774
H         -1.21002        0.65614        2.14479
C         -2.45207        3.30851       -0.38673
H         -2.78602        4.07956       -1.08316
C         -1.73679        2.71958        1.85034
H         -1.48511        2.99087        2.87508
C         -2.17648        3.68483        0.93828
O         -2.34871        4.98223        1.23182
C         -2.12284        5.41888        2.54508
H         -1.07720        5.25543        2.85402
H         -2.32583        6.49652        2.55503
H         -2.79757        4.91615        3.25996
C         -4.16844       -0.41697       -1.39970
C         -4.86966        0.07881       -0.29923
H         -4.44549        0.01936        0.70180
C         -4.72999       -0.33364       -2.67574
H         -4.16692       -0.72869       -3.52368
C         -6.12313        0.65563       -0.47943
H         -6.67574        1.04341        0.37749
C         -5.98437        0.23794       -2.85799
H         -6.42827        0.30218       -3.85262
C         -6.67716        0.73537       -1.75509
Cl        -8.23850        1.45535       -1.97338
C         -2.98536       -1.91173        1.50570
C         -3.78019       -2.87899        0.88563
H         -3.43338       -3.33760       -0.04095
C         -3.40583       -1.32537        2.70046
H         -2.77310       -0.58346        3.18739
C         -5.00748       -3.22941        1.43603
H         -5.64186       -3.97236        0.95048
C         -4.63057       -1.68086        3.25960
H         -4.96984       -1.22520        4.19113
C         -5.43246       -2.62287        2.61797
Cl        -6.96669       -3.04990        3.29940
C          3.23322       -1.70813        2.00757
H          2.62604       -1.02766        2.60626
C          3.95547       -2.51792       -0.14600
H          3.90905       -2.48436       -1.23805
C          4.05589       -2.63212        2.62990
H          4.10961       -2.70429        3.71764
C          4.79528       -3.44070        0.46930
H          5.39749       -4.10723       -0.14760
C          4.84831       -3.50369        1.86778
O          5.61932       -4.35984        2.55781
C          6.43144       -5.26161        1.85606
H          7.17106       -4.73963        1.22419
H          6.96403       -5.85521        2.60941
H          5.83523       -5.94065        1.22202
C          4.42337        0.75394       -0.94971
C          4.87749        1.05770        0.33539
H          4.20343        0.99411        1.18774
C          5.29589        0.84401       -2.03625
H          4.91751        0.60264       -3.03106
C          6.20154        1.44295        0.52720
H          6.56513        1.67976        1.52820
C          6.61597        1.23537       -1.84709
H          7.30167        1.30928       -2.69258
C          7.06646        1.53042       -0.56070
Cl         8.71413        2.01108       -0.31550
C          1.61069        1.90214        0.91835
C          1.17858        2.54947       -0.24084
H          1.00160        1.98045       -1.15301
C          1.82625        2.63717        2.08704
H          2.16742        2.11406        2.98238
C          0.96113        3.92332       -0.22463
H          0.61287        4.43411       -1.12314
C          1.61419        4.01086        2.10210
H          1.79393        4.59061        3.00914
C          1.18243        4.65096        0.94170
Cl         0.91719        6.36590        0.95262
