110
Cat248.ts34.5.log	Energy: -2060567.9083391
C         -0.52294        0.30456       -3.57038
H         -0.16730       -0.49800       -4.22337
H         -1.56035        0.59746       -3.76393
C          0.44158        1.30613       -3.20251
H          1.48205        1.17375       -3.51073
H          0.12997        2.36014       -3.22835
H          0.25167        1.51801       -1.67399
Ir         0.00765       -0.12876       -1.53738
C         -2.58680        2.02416       -0.27916
C         -3.57680       -0.53910       -0.53535
C         -1.68189       -0.25535        1.51347
C          1.63698       -1.48565        1.23831
C          3.39900       -0.32988       -0.95843
C          2.35136        1.28242        1.04245
P          1.80169       -0.13800       -0.02042
P         -1.92642        0.29500       -0.23123
C         -0.11552       -1.98824       -1.81436
O         -0.31227       -3.10945       -2.04435
C         -3.12650        2.78363        0.76528
C         -2.58904        2.57660       -1.56890
C         -3.59300        4.61420       -0.75366
C         -3.09425        3.85246       -1.80959
C         -3.60771        4.07090        0.53030
H         -3.17779        2.36629        1.76615
H         -4.01266        4.65227        1.36320
H         -3.97760        5.62157       -0.93150
H         -3.08878        4.25407       -2.82607
H         -2.18228        1.98939       -2.39477
C         -4.57930       -0.51693        0.45792
O         -4.34833        0.25627        1.53592
C         -5.09263        0.07654        2.70455
H         -4.60968        0.69119        3.47586
H         -6.13987        0.40656        2.58698
H         -5.07699       -0.97625        3.03454
C         -3.83983       -1.29481       -1.69612
O         -2.92094       -1.25954       -2.67050
C         -3.00006       -2.15070       -3.74379
H         -2.08810       -2.00088       -4.33422
H         -3.87946       -1.95204       -4.38198
H         -3.02774       -3.19881       -3.40056
C         -5.01408       -2.05313       -1.82084
H         -5.19453       -2.64489       -2.71695
C         -5.75317       -1.27163        0.33955
H         -6.50964       -1.24654        1.12303
C         -5.95361       -2.04020       -0.79951
H         -6.86794       -2.63024       -0.89966
C         -1.83938       -1.64035        1.74564
O         -1.97184       -2.39845        0.64542
C         -2.27944       -3.75764        0.74628
H         -2.30959       -4.13744       -0.28224
H         -1.50385       -4.30727        1.30568
H         -3.26201       -3.91359        1.22538
C         -1.33072        0.54182        2.61544
O         -0.99104        1.82555        2.36557
C         -0.72841        2.67736        3.44115
H         -0.54097        3.67146        3.01845
H          0.16872        2.36476        4.00256
H         -1.58637        2.74170        4.13438
C         -1.34599        0.01977        3.91735
H         -1.10825        0.65278        4.77081
C         -1.87123       -2.16708        3.03972
H         -2.03432       -3.23165        3.19972
C         -1.64945       -1.32106        4.11869
H         -1.66799       -1.72316        5.13430
C          1.43016       -2.80578        0.81949
C          1.59826       -1.21797        2.60991
C          1.29052       -3.56223        3.11179
C          1.43351       -2.24559        3.53712
C          1.27545       -3.83442        1.74328
H          1.41775       -3.04314       -0.24188
H          1.14122       -4.85924        1.38623
H          1.16848       -4.36906        3.83894
H          1.40725       -2.00477        4.60247
H          1.69766       -0.19281        2.96881
C          3.77884        0.78470       -1.73590
O          2.99493        1.87368       -1.61440
C          3.32632        3.06171       -2.26491
H          2.56436        3.79511       -1.97143
H          4.31987        3.43296       -1.95856
H          3.30682        2.95138       -3.36386
C          4.23158       -1.46267       -1.01314
O          3.90905       -2.49293       -0.21149
C          4.65222       -3.67263       -0.23816
H          4.16698       -4.35424        0.47358
H          5.69836       -3.50959        0.07828
H          4.65392       -4.13973       -1.23886
C          5.35507       -1.50012       -1.85065
H          5.98278       -2.38946       -1.89038
C          4.90309        0.75983       -2.56834
H          5.17179        1.63025       -3.16561
C          5.67717       -0.39255       -2.62461
H          6.55347       -0.42503       -3.27621
C          1.77023        2.56784        1.02377
O          0.76611        2.78724        0.16920
C          0.18825        4.05627        0.06778
H         -0.57849        3.98575       -0.71210
H         -0.30764        4.36225        1.00315
H          0.93300        4.82271       -0.21264
C          3.49911        1.09909        1.84693
O          4.09115       -0.10132        1.75624
C          5.13542       -0.45218        2.61281
H          5.38967       -1.49163        2.37041
H          4.83006       -0.39665        3.67233
H          6.02596        0.18195        2.45892
C          3.98381        2.10988        2.68656
H          4.85456        1.94006        3.31842
C          2.26106        3.58775        1.85617
H          1.79881        4.57351        1.84790
C          3.34821        3.34479        2.68458
H          3.71980        4.14326        3.33178
