102
Cat255.ts34.5.log	Energy: -1683271.2886341
C          0.62060       -2.73617       -2.12389
H          0.10467       -2.86630       -3.07908
H          1.70746       -2.85450       -2.17580
C         -0.04511       -3.20244       -0.94665
H         -1.04125       -3.64625       -1.02497
H          0.57317       -3.66128       -0.16620
H         -0.10350       -1.98363        0.12202
Ir        -0.14187       -0.92745       -1.19845
C          3.01132       -1.77915       -0.01408
C          2.97373        0.43993       -1.91953
C          2.30807        0.94893        0.89728
C         -1.18215        1.94942        0.51124
C         -3.15963        0.88592       -1.27166
C         -2.68755       -0.34580        1.31561
P         -1.77810        0.33243       -0.14509
P          2.02526       -0.30373       -0.48439
C         -0.54331       -0.10118       -2.83549
O         -0.76163        0.45148       -3.83109
C          2.70336       -2.42116        1.19670
C          3.91662       -2.41484       -0.87435
C          4.25488       -4.20830        0.71126
C          4.53224       -3.61461       -0.51639
C          3.32954       -3.60683        1.56454
H          1.95445       -1.99217        1.86190
H          3.08492       -4.06750        2.52452
H          4.74404       -5.14255        0.99620
H          5.23475       -4.08518       -1.20859
H          4.14925       -1.98617       -1.84975
H          3.17309       -0.40588       -2.59399
H          2.22176        1.04463       -2.44107
C          4.21290        1.23686       -1.63360
C          5.43962        0.60476       -1.38933
H          5.49579       -0.48328       -1.41869
C          4.15944        2.64821       -1.58868
C          2.89012        3.39254       -1.88685
H          2.06947        3.08980       -1.22027
H          2.54744        3.21255       -2.91903
H          3.03417        4.47511       -1.76692
C          6.58861        1.32967       -1.08721
H          7.52814        0.80466       -0.89977
C          5.32164        3.36213       -1.27435
H          5.27294        4.45378       -1.23497
C          6.52921        2.71890       -1.02032
H          7.42036        3.30222       -0.77740
H          2.85965        1.77549        0.42792
H          1.31274        1.33075        1.15538
C          3.06698        0.49531        2.10870
C          4.46571        0.48275        2.07434
H          4.97400        0.82273        1.16922
C          2.40585        0.05603        3.27296
C          0.90701        0.05167        3.36161
H          0.44218       -0.39615        2.46789
H          0.51280        1.07688        3.43889
H          0.56370       -0.50802        4.24295
C          5.21286        0.03563        3.15891
H          6.30395        0.03118        3.10295
C          3.17073       -0.38869        4.35658
H          2.65679       -0.73464        5.25801
C          4.56213       -0.40635        4.30813
H          5.13484       -0.76464        5.16692
C         -0.59452        2.82823       -0.41079
C         -1.27354        2.34806        1.84842
C         -0.23354        4.46733        1.32723
C         -0.79017        3.59254        2.25568
C         -0.14522        4.08292       -0.01203
H         -0.48852        2.51928       -1.45496
H          0.28681        4.76420       -0.74852
H          0.13244        5.44664        1.64369
H         -0.86091        3.88119        3.30726
H         -1.72734        1.69278        2.59254
H         -2.67993        1.58067       -1.98010
H         -3.40598       -0.01083       -1.85316
C         -4.38501        1.49686       -0.64941
C         -4.29233        2.69382        0.07538
H         -3.32523        3.19007        0.16399
C         -5.65317        0.89361       -0.80811
C         -5.84939       -0.33995       -1.64013
H         -5.26085       -1.18895       -1.26415
H         -5.54948       -0.16969       -2.68679
H         -6.90487       -0.64311       -1.64084
C         -5.40706        3.27223        0.67671
H         -5.29983        4.20381        1.23736
C         -6.76220        1.49016       -0.19637
H         -7.74120        1.01844       -0.31688
C         -6.65113        2.66077        0.54878
H         -7.53647        3.09914        1.01559
H         -1.91584       -0.73085        2.00441
H         -3.16641        0.50962        1.80719
C         -3.72617       -1.40048        1.03699
C         -3.46778       -2.44592        0.14506
H         -2.51326       -2.44822       -0.38456
C         -4.97187       -1.35239        1.69942
C         -5.31258       -0.25169        2.66193
H         -5.28373        0.73540        2.17324
H         -4.61297       -0.22180        3.51294
H         -6.32432       -0.38797        3.06719
C         -4.40766       -3.44553       -0.09576
H         -4.17988       -4.24892       -0.80043
C         -5.90669       -2.36057        1.43989
H         -6.87381       -2.32215        1.94864
C         -5.63594       -3.40354        0.55700
H         -6.38700       -4.17656        0.37753
