102
Cat225.ts34.5.log	Energy: -1589220.3667533
C         -1.13008       -0.82408       -2.97955
H         -1.83170       -0.19114       -3.53035
H         -0.19740       -1.00933       -3.52231
C         -1.69746       -1.90829       -2.21158
H         -2.78485       -1.98811       -2.11927
H         -1.21239       -2.89026       -2.28040
H         -0.96871       -1.86229       -0.83994
Ir        -1.02277       -0.17342       -0.92920
C          2.48984       -1.42339       -1.13870
C          1.96661        1.26442       -2.07390
C          1.98615        0.66070        0.79529
C         -1.15567        1.18715        2.40266
C         -3.64993        0.13792        1.37168
C         -1.63488       -1.68096        2.23137
P         -1.80382       -0.11603        1.24408
P          1.32671        0.02121       -0.83725
C         -1.94466        1.42738       -1.27165
O         -2.59004        2.37547       -1.44775
H          2.63999       -1.82319       -0.11900
C          3.86623       -1.08941       -1.72213
H          4.36208       -0.29258       -1.15182
H          3.74240       -0.71203       -2.75201
C          4.75538       -2.32896       -1.76098
H          5.73973       -2.07144       -2.18479
H          4.94310       -2.66608       -0.72532
C          4.10855       -3.45544       -2.55758
H          4.74296       -4.35678       -2.54316
H          4.03032       -3.14814       -3.61641
C          2.71572       -3.77516       -2.02790
H          2.80705       -4.20430       -1.01357
H          2.23338       -4.54833       -2.64816
C          1.83329       -2.53251       -1.95871
H          1.63735       -2.16730       -2.98305
H          0.85424       -2.77822       -1.52357
H          2.00389        0.71630       -3.02741
H          3.00408        1.52406       -1.81297
C          1.12065        2.48884       -2.23932
C          1.10757        3.51456       -1.28557
H          1.73625        3.43945       -0.39595
C          0.30015        2.62914       -3.36490
H          0.28834        1.83402       -4.11455
C          0.29846        4.63718       -1.44765
H          0.30253        5.42052       -0.68546
C         -0.50284        3.75309       -3.53559
H         -1.13888        3.83495       -4.42010
C         -0.51078        4.76159       -2.57450
H         -1.15003        5.63822       -2.70028
H          1.57799       -0.04897        1.53089
H          1.47009        1.61828        0.95292
C          3.46624        0.79378        0.96763
C          4.16461        1.92987        0.53419
H          3.61803        2.77383        0.10819
C          4.20392       -0.24920        1.54572
H          3.67297       -1.12804        1.91702
C          5.55288        2.00140        0.63326
H          6.07379        2.89544        0.28191
C          5.59073       -0.18102        1.64610
H          6.14227       -1.01131        2.09448
C          6.27447        0.94132        1.17972
H          7.36305        0.99567        1.25383
H         -0.12210        0.84588        2.59281
C         -1.86225        1.31917        3.75181
H         -1.93912        0.34612        4.26384
H         -2.89653        1.66996        3.59264
C         -1.13403        2.32159        4.64514
H         -1.65783        2.41858        5.61008
H         -0.12551        1.93193        4.87519
C         -1.00724        3.68237        3.96858
H         -0.44369        4.37864        4.61050
H         -2.01558        4.11809        3.84741
C         -0.34957        3.56403        2.59826
H          0.70301        3.24959        2.72578
H         -0.32157        4.54492        2.09644
C         -1.06564        2.54994        1.71389
H         -2.08151        2.91731        1.48276
H         -0.55871        2.44978        0.74294
H         -3.82287        1.17884        1.05694
H         -3.94961        0.04920        2.42735
C         -4.43061       -0.80972        0.51435
C         -4.82735       -2.05996        1.00381
H         -4.61518       -2.32273        2.04402
C         -4.74362       -0.48375       -0.81222
H         -4.45561        0.49270       -1.20529
C         -5.49638       -2.97147        0.18767
H         -5.79620       -3.94209        0.59040
C         -5.41822       -1.38996       -1.62718
H         -5.65634       -1.11480       -2.65759
C         -5.78924       -2.64113       -1.13383
H         -6.31519       -3.35231       -1.77521
H         -2.17133       -2.43495        1.63654
H         -2.18497       -1.55379        3.17710
C         -0.23133       -2.12822        2.49863
C          0.46784       -1.67372        3.62593
H         -0.01695       -0.97801        4.31567
C          0.41021       -3.03121        1.64183
H         -0.12138       -3.39757        0.76120
C          1.76126       -2.11577        3.89577
H          2.28429       -1.75233        4.78340
C          1.70077       -3.48065        1.91229
H          2.17443       -4.19961        1.23986
C          2.38114       -3.02736        3.04188
H          3.38899       -3.38873        3.25960
