98
Cat235.ts34.5.log	Energy: -1399559.5746491
C          0.27180        2.91392        1.41987
H          0.41492        3.85460        0.88026
H         -0.59408        2.92933        2.09116
C          1.46266        2.23725        1.88342
H          2.44606        2.61349        1.58645
H          1.47001        1.85410        2.91185
H          1.16757        0.73033        1.56952
Ir         0.50562        1.23244        0.10564
C         -1.24334       -1.50309        1.51790
C         -2.65294        0.97883        1.74700
C         -2.52334       -0.35763       -0.80441
C          0.58414       -1.42656       -2.21247
C          3.07189       -0.10587       -1.93171
C          2.12400       -1.93481        0.14724
P          1.57901       -0.54738       -0.93560
P         -1.46908        0.09254        0.63733
C          0.47252        2.26096       -1.47305
O          0.44542        2.87792       -2.45613
C         -1.43622       -2.75014        0.90863
C         -0.72741       -1.47454        2.82336
C         -0.62690       -3.88797        2.88525
C         -0.43179       -2.65094        3.50390
C         -1.12517       -3.93076        1.58546
H         -1.81631       -2.81046       -0.11239
H         -1.27827       -4.89240        1.08888
H         -0.38595       -4.81260        3.41485
H         -0.03322       -2.60410        4.52054
H         -0.53435       -0.51200        3.30566
H         -3.45998        0.29497        2.05723
H         -2.08990        1.24009        2.65863
C         -3.20776        2.24147        1.10036
H         -2.38171        2.79439        0.62085
H         -3.89772        1.96705        0.28367
C         -3.93259        3.15033        2.08274
H         -3.23595        3.43787        2.89176
H         -4.74767        2.58925        2.57571
C         -4.49961        4.40741        1.43832
H         -3.68022        4.95702        0.94249
H         -5.19428        4.11717        0.63008
C         -5.21123        5.32294        2.42110
H         -5.60914        6.22153        1.92568
H         -4.52957        5.65815        3.21947
H         -6.05654        4.80888        2.90668
H         -2.58507        0.56290       -1.40726
H         -1.91851       -1.04616       -1.41527
C         -3.90755       -0.93446       -0.54124
H         -3.85151       -1.74325        0.20707
H         -4.55767       -0.16240       -0.09575
C         -4.55795       -1.46850       -1.81086
H         -3.90577       -2.24546       -2.25086
H         -4.60201       -0.66184       -2.56522
C         -5.95233       -2.03815       -1.59376
H         -5.90123       -2.83775       -0.83337
H         -6.59971       -1.25597       -1.15892
C         -6.58687       -2.57959       -2.86462
H         -7.59261       -2.98571       -2.67799
H         -5.97761       -3.38739       -3.30154
H         -6.68270       -1.79216       -3.62957
C          0.27756       -2.79129       -2.15571
C          0.04081       -0.66220       -3.25716
C         -1.10755       -2.60064       -4.12978
C         -0.78979       -1.24393       -4.20946
C         -0.56921       -3.37102       -3.10236
H          0.68313       -3.41783       -1.36075
H         -0.80578       -4.43586       -3.03368
H         -1.77259       -3.05471       -4.86816
H         -1.20570       -0.62864       -5.01075
H          0.24263        0.40993       -3.31147
H          3.52533       -1.03298       -2.32280
H          2.67798        0.44786       -2.80092
C          4.08320        0.75896       -1.19570
H          3.53658        1.58119       -0.70067
H          4.56008        0.17952       -0.38696
C          5.16019        1.32731       -2.10850
H          4.67975        1.92167       -2.90689
H          5.68629        0.50272       -2.62392
C          6.17485        2.19400       -1.37565
H          5.64141        3.01093       -0.85839
H          6.65067        1.59693       -0.57724
C          7.24418        2.77541       -2.28617
H          7.96146        3.39595       -1.72777
H          6.79872        3.40723       -3.07137
H          7.81536        1.97951       -2.79105
H          1.20116       -2.46512        0.43234
H          2.72526       -2.62854       -0.46555
C          2.86115       -1.55644        1.42148
H          3.80398       -1.03245        1.19273
H          2.24228       -0.83598        1.98097
C          3.14258       -2.76408        2.30393
H          3.82510       -3.45932        1.78159
H          2.20058       -3.32032        2.45484
C          3.72715       -2.39809        3.66026
H          4.66617       -1.83480        3.51589
H          3.03690       -1.70056        4.16769
C          3.98112       -3.60330        4.55095
H          4.39629       -3.31040        5.52726
H          4.69228       -4.30351        4.08372
H          3.04916       -4.16119        4.73859
