114
Cat211.ts34.5.log	Energy: -1499691.3299698
C         -1.16009        0.31485       -3.15061
H         -1.00909       -0.46827       -3.89968
H         -2.20245        0.64595       -3.07752
C         -0.13409        1.32961       -3.06328
H          0.77454        1.20220       -3.65854
H         -0.45391        2.38136       -3.04316
H          0.04932        1.52964       -1.59222
Ir        -0.10037       -0.14456       -1.33679
C         -2.43619        1.80229        0.63634
C         -3.59676       -0.53175       -0.74679
C         -2.02898       -0.86191        1.68811
C          2.25096       -1.58284        0.90568
C          3.38721        0.20215       -1.18524
C          1.97134        1.36685        1.19946
P          1.89981       -0.01605       -0.06822
P         -2.00629        0.06509        0.07060
C          0.04524       -1.97167       -1.74821
O          0.01413       -3.09978       -2.02253
H         -1.49294        2.09499        1.13148
C         -3.55377        2.03498        1.65443
H         -3.46326        1.35272        2.51397
H         -4.53141        1.82997        1.18792
C         -3.54412        3.48539        2.13380
H         -4.34706        3.64686        2.87166
H         -2.59253        3.68596        2.65946
C         -3.69235        4.45467        0.96642
H         -3.64582        5.49725        1.32105
H         -4.69424        4.32425        0.51819
C         -2.63275        4.20676       -0.10115
H         -1.63882        4.46655        0.30536
H         -2.79640        4.86921       -0.96682
C         -2.61177        2.74889       -0.55131
H         -3.55803        2.51433       -1.07179
H         -1.80344        2.58551       -1.27945
H         -3.87900        0.34148       -1.36598
C         -4.77642       -0.84021        0.18271
H         -4.94878       -0.03153        0.90433
H         -4.54150       -1.74017        0.77727
C         -6.05380       -1.10177       -0.61280
H         -6.88509       -1.32670        0.07575
H         -6.33759       -0.17887       -1.15107
C         -5.86917       -2.23416       -1.61491
H         -6.78371       -2.37266       -2.21459
H         -5.71239       -3.17948       -1.06410
C         -4.66671       -1.97858       -2.51515
H         -4.87348       -1.10541       -3.16125
H         -4.50377       -2.83216       -3.19306
C         -3.40114       -1.70830       -1.70853
H         -3.13381       -2.61408       -1.13813
H         -2.55273       -1.51580       -2.37414
H         -3.04289       -0.73339        2.10605
C         -1.03410       -0.30606        2.70375
H         -1.19659        0.77029        2.87169
H         -0.02128       -0.40525        2.28265
C         -1.10895       -1.05475        4.03057
H         -0.36364       -0.64957        4.73497
H         -2.09835       -0.87764        4.49035
C         -0.90094       -2.55199        3.83972
H         -1.00678       -3.08281        4.79978
H          0.13519       -2.72765        3.50199
C         -1.86090       -3.12147        2.80321
H         -2.89306       -3.06811        3.19531
H         -1.65074       -4.18977        2.63129
C         -1.79019       -2.35841        1.48433
H         -0.80430       -2.49905        1.00826
H         -2.52147       -2.77389        0.77624
H          1.22960       -1.85953        1.22037
C          3.09990       -1.50305        2.17728
H          2.71039       -0.72939        2.85683
H          4.13384       -1.21237        1.92715
C          3.12500       -2.84486        2.90831
H          3.77370       -2.77234        3.79649
H          2.11103       -3.06471        3.28553
C          3.57477       -3.98694        2.00642
H          3.53452       -4.94362        2.55221
H          4.63300       -3.83428        1.72539
C          2.72908       -4.05121        0.74084
H          1.68632       -4.30717        1.00189
H          3.08658       -4.85319        0.07528
C          2.74528       -2.71818        0.00123
H          3.77683       -2.51234       -0.32734
H          2.13786       -2.78543       -0.90904
H          3.19418       -0.59825       -1.92362
C          4.80383       -0.00557       -0.63719
H          4.88331       -0.94171       -0.06862
H          5.06178        0.80442        0.06110
C          5.81768       -0.01181       -1.78008
H          6.83404       -0.16331       -1.38085
H          5.61087       -0.87367       -2.44013
C          5.75399        1.27552       -2.59415
H          6.45937        1.23276       -3.43999
H          6.08243        2.11830       -1.95871
C          4.33890        1.55011       -3.09020
H          4.05343        0.78116       -3.83060
H          4.29673        2.51844       -3.61548
C          3.33053        1.52917       -1.94619
H          3.55735        2.35722       -1.25162
H          2.31454        1.70364       -2.32368
H          1.39225        0.93186        2.03413
C          1.21384        2.61972        0.75442
H          0.25216        2.32828        0.31139
H          1.77723        3.12358       -0.05013
C          1.01562        3.58411        1.91768
H          0.47430        4.48250        1.57773
H          0.36927        3.10259        2.67522
C          2.34262        3.97314        2.55863
H          2.17653        4.61599        3.43837
H          2.92472        4.57633        1.83852
C          3.15466        2.74167        2.94130
H          2.64220        2.20272        3.75930
H          4.13968        3.03910        3.33679
C          3.33332        1.79171        1.75821
H          3.89881        2.31263        0.96753
H          3.94145        0.93050        2.06044
