50
Cat233.ts34.5.log	Energy: -1005164.9482490
C         -3.39019        1.23492       -0.01660
H         -4.21275        0.68634        0.45092
H         -3.29345        2.26378        0.34614
C         -3.16692        0.99696       -1.42517
H         -3.74384        0.21939       -1.93376
H         -2.99213        1.86725       -2.06967
H         -1.61349        0.85523       -1.55622
Ir        -1.62911        0.00774       -0.09015
C          1.50478        1.72767        0.10185
C         -0.68817        3.35241        0.80883
C          0.16269        1.35790        2.62068
C          1.48866       -1.66740       -0.11855
C         -0.66672       -3.25161       -1.03142
C          0.35116       -1.21142       -2.73102
P         -0.12063       -1.50011       -0.98766
P         -0.17343        1.58431        0.83321
C         -2.25810       -1.27883        1.13371
O         -2.58874       -2.08051        1.90395
C          2.68725        1.56530        0.83054
C          1.59385        1.98393       -1.27424
C          4.00504        1.92711       -1.16528
C          2.83085        2.09215       -1.90218
C          3.92722        1.65991        0.19885
H          2.65274        1.34525        1.89862
H          4.84011        1.51581        0.78180
H          4.97794        2.00186       -1.65696
H          2.88076        2.30073       -2.97405
H          0.67282        2.08576       -1.85664
H         -0.84892        3.67177       -0.23088
H         -1.63929        3.45574        1.35152
H          0.07090        3.99945        1.27347
H          0.79356        2.15514        3.04381
H         -0.80968        1.34743        3.13316
H          0.63823        0.38059        2.78057
C          1.45013       -1.89330        1.26495
C          2.72993       -1.57353       -0.75336
C          3.86302       -1.93938        1.35076
C          3.90963       -1.70475       -0.02064
C          2.62751       -2.03559        1.99313
H          0.48305       -1.94808        1.77359
H          2.58127       -2.21861        3.06965
H          4.78853       -2.04305        1.92229
H          4.87245       -1.61393       -0.52907
H          2.79158       -1.37778       -1.82511
H         -0.91418       -3.57489       -0.01055
H         -1.58081       -3.31711       -1.63905
H          0.11437       -3.90755       -1.44495
H          0.86542       -0.24434       -2.81468
H          0.99372       -2.01164       -3.12778
H         -0.57658       -1.16403       -3.31835
