102
Cat232.ts34.5.log	Energy: -1838191.5431073
C         -1.95195        1.19752       -2.98913
H         -1.45772        1.08556       -3.95806
H         -3.00088        0.88837       -3.00271
C         -1.56487        2.32850       -2.19241
H         -0.77097        2.99403       -2.54204
H         -2.34664        2.87007       -1.64609
H         -1.21263        1.80693       -0.73271
Ir        -0.64075        0.39300       -1.46260
C         -3.79749        0.15388        0.44166
C         -3.05256       -2.21484       -1.05862
C         -1.74063       -1.64461        1.36342
C          1.72827       -0.84513        0.91510
C          2.80361        0.69938       -1.40231
C          1.52752        2.03503        0.86560
P          1.33986        0.55260       -0.24515
P         -2.27264       -0.75339       -0.17552
C          0.28059       -0.62619       -2.73491
O          0.87450       -1.21790       -3.53959
H         -3.37675        1.05076        0.93124
C         -4.64277       -0.58422        1.48099
H         -4.02791       -0.86547        2.34888
H         -5.03266       -1.52284        1.04688
C         -5.81788        0.26771        1.95568
H         -6.42499       -0.30179        2.67804
H         -5.42416        1.14233        2.50450
C         -6.67704        0.74958        0.79402
H         -7.49666        1.38904        1.15955
H         -7.15478       -0.12092        0.30849
C         -5.83407        1.49479       -0.23240
H         -5.44140        2.42194        0.22342
H         -6.45171        1.80857       -1.08939
C         -4.66288        0.64723       -0.71988
H         -5.05573       -0.21790       -1.28336
H         -4.05037        1.22705       -1.42309
H         -3.92946       -2.55122       -0.48332
H         -3.40375       -1.82528       -2.02501
C         -2.08165       -3.33756       -1.25625
C         -1.21136       -3.34023       -2.35203
H         -1.31669       -2.57129       -3.11678
C         -1.95262       -4.36561       -0.31234
H         -2.64190       -4.41202        0.53452
C         -0.20001       -4.28866       -2.47566
H          0.49696       -4.26506       -3.31472
C         -0.95305       -5.32826       -0.42127
H         -0.83974       -6.12398        0.31706
C         -0.07224       -5.26121       -1.49371
F          0.91730       -6.15334       -1.57668
H         -2.53300       -2.35771        1.64136
H         -0.88700       -2.26441        1.04454
C         -1.36379       -0.84820        2.58318
C         -1.22225        0.54268        2.58793
H         -1.37523        1.09315        1.65708
C         -1.11414       -1.53553        3.78057
H         -1.21432       -2.62422        3.80200
C         -0.84703        1.23050        3.74172
H         -0.73534        2.31677        3.75326
C         -0.73331       -0.86828        4.93980
H         -0.53537       -1.40261        5.87067
C         -0.60471        0.51572        4.90570
F         -0.24410        1.16563        6.01052
H          0.80306       -0.87331        1.51476
C          2.88275       -0.68096        1.90670
H          2.76112        0.24420        2.49076
H          3.84156       -0.59469        1.37414
C          2.94060       -1.87730        2.85457
H          3.78637       -1.76028        3.55141
H          2.02445       -1.89244        3.47290
C          3.05584       -3.19175        2.09105
H          3.08721       -4.04286        2.79065
H          4.01411       -3.20623        1.54048
C          1.90830       -3.35709        1.10219
H          0.95901       -3.45118        1.66119
H          2.01464       -4.28903        0.52401
C          1.81059       -2.16912        0.15079
H          2.69746       -2.16391       -0.50502
H          0.93671       -2.27423       -0.51204
H          2.65979       -0.10089       -2.14096
H          2.60952        1.63571       -1.94786
C          4.19881        0.64277       -0.85820
C          4.79889        1.73140       -0.21026
H          4.26673        2.68139       -0.13013
C          4.95336       -0.53216       -0.98696
H          4.52594       -1.38535       -1.51931
C          6.07645        1.64017        0.33676
H          6.54213        2.48613        0.84539
C          6.23181       -0.64360       -0.44949
H          6.81593       -1.56048       -0.54661
C          6.77475        0.44530        0.22145
F          7.99496        0.34821        0.74627
H          1.01468        1.76460        1.79904
H          2.59412        2.14080        1.11246
C          0.95836        3.30385        0.30953
C          1.60645        4.02549       -0.70149
H          2.57344        3.68756       -1.07918
C         -0.27495        3.78779        0.76403
H         -0.80050        3.25334        1.55759
C          1.04608        5.17632       -1.24961
H          1.55083        5.73816       -2.03746
C         -0.85225        4.93757        0.23154
H         -1.81197        5.31496        0.58899
C         -0.18375        5.61738       -0.77781
F         -0.72762        6.71659       -1.29768
