86
Cat270.ts34.5.log	Energy: -1629697.3806264
C         -1.27433       -0.46461       -3.56391
H         -0.83735       -1.18613       -4.26035
H         -2.35131       -0.59403       -3.41374
C         -0.75404        0.87872       -3.60213
H          0.10769        1.11007       -4.23546
H         -1.47048        1.70886       -3.57000
H         -0.59649        1.26743       -2.08354
Ir        -0.05975       -0.29921       -1.79869
C         -2.17710        1.05011        0.68021
C         -3.41685       -1.09399       -0.79278
C         -1.52313       -1.73660        1.13933
C          2.07318       -0.55387        0.99830
C          3.29031        0.66088       -1.28720
C          1.48617        2.17570        0.31271
P          1.65942        0.50042       -0.43930
P         -1.77521       -0.50113       -0.20353
C          0.93644       -1.85883       -2.16375
O          1.55364       -2.81720       -2.37156
C         -2.78100        2.09073       -0.04935
H         -3.11945        1.90707       -1.07333
C         -1.73900        1.33292        1.97395
H         -1.27066        0.54821        2.57027
C         -2.93784        3.35315        0.49482
H         -3.40434        4.16243       -0.07044
C         -1.86759        2.60815        2.52768
H         -1.48542        2.79063        3.53201
C         -2.45843        3.63126        1.78439
O         -2.59008        4.90468        2.20628
C         -2.06639        5.25170        3.45782
H         -0.98013        5.06055        3.51085
H         -2.24821        6.32604        3.58873
H         -2.56441        4.70462        4.27789
C         -3.41392       -2.19965       -1.65399
C         -4.64146       -0.55504       -0.38406
C         -5.82862       -2.20695       -1.69183
C         -5.83989       -1.10678       -0.83686
C         -4.61096       -2.75593       -2.09527
H         -2.45555       -2.61825       -1.97503
H         -4.59311       -3.62030       -2.76357
H         -6.76885       -2.63779       -2.04445
H         -6.78994       -0.67471       -0.51239
H         -4.66314        0.29839        0.29732
C         -0.51823       -2.69578        1.00465
C         -2.37743       -1.79456        2.24967
C         -1.18372       -3.72022        3.08789
C         -2.19838       -2.77105        3.22510
C         -0.35498       -3.68801        1.97011
H          0.13873       -2.65245        0.13455
H          0.43579       -4.43150        1.84833
H         -1.04445       -4.48755        3.85325
H         -2.86299       -2.80037        4.09217
H         -3.19220       -1.07289        2.34958
C          1.52610       -0.32018        2.26866
H          0.93410        0.57925        2.44462
C          2.82313       -1.71754        0.80733
H          3.25261       -1.93566       -0.17362
C          1.72054       -1.21507        3.30810
H          1.28418       -1.04479        4.29378
C          3.02774       -2.62574        1.84469
H          3.61514       -3.52401        1.65348
C          2.46658       -2.38243        3.10350
O          2.57957       -3.21115        4.15976
C          3.28547       -4.40944        4.00417
H          4.34352       -4.23405        3.74059
H          3.24277       -4.92847        4.97010
H          2.83231       -5.05614        3.23175
C          3.30935        0.75129       -2.68116
C          4.49876        0.73560       -0.58231
C          5.70992        1.00761       -2.65508
C          5.70101        0.90578       -1.26330
C          4.51247        0.92939       -3.36259
H          2.36095        0.65582       -3.21823
H          4.51366        0.99680       -4.45317
H          6.65493        1.13938       -3.18784
H          6.63866        0.95502       -0.70422
H          4.50550        0.63983        0.50573
C          0.52508        3.06286       -0.17346
C          2.34323        2.60515        1.33705
C          1.26944        4.76891        1.36308
C          2.23242        3.88958        1.86084
C          0.41694        4.35258        0.34453
H         -0.15615        2.72681       -0.95703
H         -0.35064        5.02739       -0.03994
H          1.18572        5.77968        1.77056
H          2.90639        4.20751        2.66012
H          3.09894        1.92792        1.73936
