74
Cat236.ts34.5.log	Energy: -1202351.4729988
C         -1.08590       -3.26263       -0.68759
H         -0.68078       -4.13886       -0.17321
H         -2.17978       -3.21716       -0.66409
C         -0.42550       -2.85925       -1.90783
H          0.49579       -3.36291       -2.21501
H         -1.05433       -2.60456       -2.77109
H         -0.34342       -1.29988       -1.78871
Ir         0.03247       -1.50561       -0.16322
C         -1.79393        1.39872       -0.88196
C         -3.46141       -0.78755       -0.00925
C         -1.76366        0.78142        1.95752
C          1.70354        1.31871        1.02359
C          3.44071       -0.67643       -0.10644
C          1.74454        1.14199       -1.87793
P          1.74310        0.08265       -0.34056
P         -1.76669       -0.03340        0.27445
C          0.87853       -2.31928        1.30382
O          1.40738       -2.79942        2.22078
C         -1.54749        2.72530       -0.50848
C         -1.96225        1.12091       -2.24929
C         -1.62003        3.44269       -2.81951
C         -1.88566        2.12663       -3.20553
C         -1.45273        3.73478       -1.46918
H         -1.40458        2.98603        0.53983
H         -1.24754        4.76051       -1.15173
H         -1.54601        4.23349       -3.56954
H         -2.02030        1.88131       -4.26187
H         -2.13251        0.08926       -2.56968
H         -3.28080       -1.35776       -0.93868
C         -3.77858       -1.79834        1.08841
H         -4.60489       -2.45611        0.77453
H         -2.90813       -2.42786        1.32532
H         -4.09669       -1.29387        2.01328
C         -4.62758        0.15838       -0.26935
H         -4.40336        0.88780       -1.06039
H         -5.50902       -0.42191       -0.58957
H         -4.91507        0.71667        0.63161
H         -0.89196        1.45251        1.86188
C         -2.99138        1.61707        2.30813
H         -2.78071        2.23144        3.19885
H         -3.30149        2.29372        1.49978
H         -3.84962        0.97508        2.55625
C         -1.43159       -0.19605        3.07928
H         -0.55842       -0.81141        2.82964
H         -1.20846        0.36408        4.00123
H         -2.27050       -0.87353        3.29530
C          1.86436        0.84166        2.33498
C          1.42398        2.67851        0.84369
C          1.45181        3.04621        3.23455
C          1.29291        3.53270        1.94008
C          1.74613        1.69532        3.42664
H          2.05932       -0.21847        2.51134
H          1.87147        1.29831        4.43677
H          1.34837        3.71529        4.09198
H          1.06431        4.58870        1.77474
H          1.28268        3.08695       -0.15654
H          3.25744       -1.28232        0.79767
C          3.75460       -1.64956       -1.23623
H          4.61176       -2.28492       -0.96298
H          2.89255       -2.30294       -1.44058
H          4.02186       -1.11983       -2.16391
C          4.60197        0.26328        0.19444
H          4.34704        1.00605        0.96418
H          5.45771       -0.32223        0.56825
H          4.94416        0.80148       -0.69943
H          0.84454        1.76079       -1.71316
C          2.95497        2.05716       -2.04618
H          2.73475        2.82527       -2.80512
H          3.24544        2.57217       -1.12065
H          3.82777        1.49112       -2.40358
C          1.49872        0.35042       -3.15675
H          0.59299       -0.26417       -3.08385
H          1.36698        1.04888       -3.99824
H          2.34125       -0.31360       -3.39967
