94
Cat252.ts34.5.log	Energy: -1773416.2986208
C         -0.86131       -0.64983       -3.67126
H         -0.79800       -1.68501       -4.01818
H         -1.84546       -0.19350       -3.81799
C          0.30663        0.17332       -3.84757
H          1.23433       -0.27769       -4.20977
H          0.16700        1.19990       -4.20542
H          0.44549        0.95314       -2.46037
Ir         0.00557       -0.47193       -1.69574
C         -2.06455        2.36292       -0.86758
O         -3.35818        0.14242       -0.96397
O         -1.60403        0.36064        0.94156
C          1.46057       -0.79526        1.50717
O          3.14467       -0.45204       -0.62360
O          1.74462        1.55704        0.18216
P          1.60570       -0.06648       -0.15228
P         -1.77100        0.56805       -0.69883
C          0.10459       -2.34346       -1.37467
O          0.15545       -3.47495       -1.14590
C         -0.95283        3.19895       -0.69767
C         -3.31562        2.92093       -1.14907
C         -2.34990        5.13596       -1.05951
C         -3.45300        4.30466       -1.24850
C         -1.09976        4.58081       -0.78142
H          0.02588        2.75883       -0.48749
H         -0.23111        5.22729       -0.63443
H         -2.46308        6.22037       -1.13363
H         -4.43179        4.73667       -1.47115
H         -4.17654        2.26502       -1.28016
C         -3.92303       -1.09517       -0.78398
C         -3.36356       -2.24443       -1.33754
H         -2.45492       -2.15410       -1.93031
C         -5.11728       -1.14298       -0.04517
C         -5.74599        0.11039        0.47979
H         -5.03960        0.69775        1.08351
H         -6.07822        0.75918       -0.34685
H         -6.62066       -0.12287        1.10146
C         -3.96103       -3.48262       -1.11172
H         -3.50713       -4.38235       -1.53294
C         -5.69582       -2.39866        0.15991
H         -6.61990       -2.45737        0.74151
C         -5.12502       -3.56325       -0.35217
H         -5.59701       -4.53040       -0.16539
C         -2.50852        0.58215        1.94501
C         -2.92680        1.87121        2.27345
H         -2.55175        2.71875        1.69918
C         -2.93291       -0.54202        2.67435
C         -2.43745       -1.90983        2.32151
H         -2.87347       -2.25934        1.37281
H         -1.34629       -1.91333        2.18927
H         -2.70240       -2.63415        3.10344
C         -3.82042        2.05644        3.32723
H         -4.15565        3.06488        3.58027
C         -3.82437       -0.32165        3.72825
H         -4.17117       -1.18211        4.30699
C         -4.27546        0.95765        4.05213
H         -4.97615        1.09554        4.87875
C          1.76751       -2.14570        1.71574
C          0.89958       -0.04727        2.54825
C          1.00950       -1.96993        4.00299
C          0.67859       -0.63209        3.79219
C          1.54851       -2.72572        2.96250
H          2.18039       -2.75370        0.90901
H          1.79932       -3.77711        3.11886
H          0.83394       -2.42974        4.97839
H          0.22833       -0.04248        4.59391
H          0.60446        0.98739        2.37023
C          4.15793       -1.12109        0.02097
C          4.78984       -0.58476        1.13869
H          4.46529        0.37983        1.52807
C          4.55243       -2.34977       -0.53184
C          3.84336       -2.90537       -1.72851
H          3.67985       -2.12936       -2.49016
H          4.41221       -3.73287       -2.17371
H          2.84432       -3.28957       -1.46416
C          5.83092       -1.28648        1.74157
H          6.32376       -0.86637        2.62116
C          5.60545       -3.02694        0.08989
H          5.93030       -3.98469       -0.32589
C          6.23963       -2.51071        1.21886
H          7.05738       -3.06427        1.68576
C          2.89429        2.23350        0.51356
C          3.18669        2.49198        1.85133
H          2.51678        2.11717        2.62496
C          3.71397        2.70587       -0.52366
C          3.34927        2.45997       -1.95497
H          4.01267        3.01640       -2.63045
H          3.41861        1.38931       -2.20057
H          2.30966        2.76437       -2.15306
C          4.33506        3.20868        2.18236
H          4.56607        3.40714        3.23131
C          4.86201        3.41662       -0.16104
H          5.51856        3.78836       -0.95222
C          5.18008        3.66368        1.17339
H          6.08550        4.22118        1.42302
