90
Cat278.ts34.5.log	Energy: -1818449.1115161
C         -1.63054       -1.03913       -3.08415
H         -1.31124       -1.91222       -3.65983
H         -2.68695       -1.05713       -2.79601
C         -1.03490        0.22542       -3.43042
H         -0.22034        0.26158       -4.15888
H         -1.68942        1.10411       -3.48434
H         -0.68815        0.87967       -2.04761
Ir        -0.21792       -0.64010       -1.50090
C         -3.49138       -0.91624       -0.12571
O         -1.52736       -1.67058        1.40880
O         -1.84764        0.88530        1.00526
C          2.99205       -0.41728        0.20130
O          2.40047        1.27632       -1.82954
O          1.38303        1.57239        0.51216
P          1.61127        0.39419       -0.64097
P         -1.74388       -0.55866        0.18248
C          0.51643       -2.38122       -1.66886
O          0.87211       -3.47487       -1.78223
C         -4.08960       -2.14188        0.19543
H         -3.50810       -2.90020        0.72270
C         -4.24686        0.04830       -0.79765
H         -3.79428        1.01049       -1.05529
C         -5.41179       -2.38708       -0.13911
H         -5.89501       -3.33387        0.10921
C         -5.57780       -0.18528       -1.13410
H         -6.14347        0.59268       -1.64669
C         -6.16909       -1.41119       -0.80336
O         -7.44461       -1.73681       -1.08229
C         -8.25538       -0.80124       -1.73659
H         -7.86033       -0.54222       -2.73480
H         -9.24099       -1.26843       -1.85626
H         -8.36913        0.12604       -1.14786
C         -0.28100       -1.92390        1.92194
C          0.30699       -3.16414        1.68148
H         -0.21353       -3.88437        1.04846
C          0.36934       -0.96453        2.69837
H         -0.10225        0.00666        2.85564
C          1.54998       -3.45087        2.24037
H          2.01540       -4.42009        2.04617
C          1.61222       -1.26426        3.25131
H          2.12768       -0.51342        3.85395
C          2.20417       -2.50604        3.02982
H          3.18378       -2.72893        3.45758
C         -2.83505        1.26294        1.87630
C         -3.31665        0.42251        2.88194
H         -2.92111       -0.58870        2.97778
C         -3.33652        2.55738        1.73412
H         -2.93086        3.18817        0.94168
C         -4.30718        0.89200        3.74334
H         -4.68626        0.23279        4.52807
C         -4.32054        3.01491        2.60537
H         -4.70813        4.03062        2.49297
C         -4.81207        2.18450        3.61313
H         -5.58650        2.54382        4.29439
C          3.74884        0.24538        1.18263
H          3.44996        1.24182        1.50832
C          3.39471       -1.68735       -0.20867
H          2.83354       -2.22226       -0.97440
C          4.86493       -0.35448        1.73608
H          5.46018        0.14933        2.49968
C          4.51859       -2.30111        0.34059
H          4.79659       -3.29855        0.00078
C          5.25798       -1.63692        1.32430
O          6.34492       -2.14773        1.93022
C          6.78793       -3.42463        1.56181
H          7.06969       -3.46908        0.49522
H          7.67405       -3.63849        2.17250
H          6.02337       -4.19662        1.75886
C          3.63379        1.84551       -1.62728
C          4.77394        1.14081       -2.01519
H          4.65596        0.15049       -2.45793
C          3.74490        3.11218       -1.05385
H          2.84297        3.65376       -0.76441
C          6.03142        1.70321       -1.81673
H          6.92347        1.14727       -2.11495
C          5.00929        3.66696       -0.86164
H          5.09647        4.65916       -0.41220
C          6.15439        2.96579       -1.23616
H          7.14252        3.40375       -1.07864
C          0.59975        2.68079        0.44591
C          0.17263        3.25582       -0.75404
H          0.45787        2.80806       -1.70599
C          0.27479        3.28050        1.66566
H          0.61635        2.80563        2.58694
C         -0.58527        4.42686       -0.71796
H         -0.91262        4.87552       -1.65925
C         -0.47043        4.45295        1.68599
H         -0.72232        4.91189        2.64481
C         -0.90769        5.03375        0.49365
H         -1.49336        5.95537        0.51104
