102
Cat279.ts34.5.log	Energy: -1917047.6827404
C         -0.44901       -2.69314       -2.51493
H          0.06308       -3.65849       -2.49714
H         -1.54010       -2.74526       -2.57091
C          0.21487       -1.60553       -3.17053
H          1.22734       -1.74145       -3.55964
H         -0.39354       -0.92990       -3.78373
H          0.22948       -0.40296       -2.20458
Ir         0.32431       -1.46959       -0.89192
C         -2.12375        0.94448        0.30089
O         -2.97394       -1.15950       -1.21871
O         -2.11212       -1.60050        1.21349
C          3.49825       -1.12642        0.66077
O          2.87641        0.45849       -1.46793
O          2.01332        0.96982        0.89772
P          2.11933       -0.30547       -0.18382
P         -1.73307       -0.76328       -0.18098
C          0.67833       -2.94109        0.24344
O          0.84541       -3.83745        0.94538
C         -2.67072        1.88075       -0.58983
H         -2.97463        1.57904       -1.59400
C         -1.70764        1.38468        1.55967
H         -1.22860        0.68034        2.24466
C         -2.84408        3.20045       -0.20706
H         -3.28101        3.93443       -0.88651
C         -1.86870        2.70965        1.95258
H         -1.51694        3.02067        2.93556
C         -2.44695        3.62581        1.06821
O         -2.64137        4.92893        1.34999
C         -2.27013        5.40662        2.61453
H         -1.18915        5.27964        2.79527
H         -2.51258        6.47666        2.62945
H         -2.83081        4.90109        3.42018
C         -4.21856       -0.66136       -1.49723
C         -5.09653       -0.15026       -0.54171
H         -4.81028       -0.10538        0.50784
C         -4.60523       -0.69935       -2.83827
H         -3.90278       -1.09874       -3.57283
C         -6.34676        0.31502       -0.94061
H         -7.02089        0.71689       -0.17906
C         -5.86021       -0.23464       -3.21764
H         -6.14596       -0.27214       -4.27272
C         -6.75872        0.28224       -2.27674
C         -8.12449        0.75504       -2.68328
H         -8.85195       -0.07430       -2.67499
H         -8.12087        1.17335       -3.70065
H         -8.50367        1.52780       -1.99880
C         -3.37942       -1.81189        1.68278
C         -4.15149       -2.83719        1.13257
H         -3.72667       -3.44550        0.33267
C         -3.89628       -1.02940        2.71331
H         -3.28427       -0.23848        3.14684
C         -5.44613       -3.04684        1.58973
H         -6.04735       -3.84213        1.14043
C         -5.19644       -1.25607        3.16405
H         -5.59682       -0.63296        3.96854
C         -5.99904       -2.25546        2.60607
C         -7.41008       -2.47748        3.06798
H         -7.57856       -3.52710        3.35545
H         -8.13065       -2.24209        2.26782
H         -7.65469       -1.84690        3.93426
C          4.30503       -0.47549        1.60816
H          4.04834        0.53570        1.92443
C          3.84856       -2.41610        0.25677
H          3.23475       -2.92505       -0.49133
C          5.42119       -1.10278        2.13256
H          6.05694       -0.60882        2.86954
C          4.97151       -3.05677        0.77453
H          5.21217       -4.06514        0.43814
C          5.76668       -2.39891        1.72028
O          6.86863       -2.92626        2.28216
C          7.26207       -4.22048        1.91824
H          7.49572       -4.29051        0.84126
H          8.16881       -4.44669        2.49325
H          6.48780       -4.96844        2.16303
C          4.14919        0.96877       -1.38167
C          4.36224        2.29323       -1.00819
H          3.50910        2.93328       -0.78054
C          5.23632        0.15135       -1.69655
H          5.05341       -0.88268       -1.99265
C          5.66459        2.78562       -0.93488
H          5.82146        3.82691       -0.63982
C          6.52808        0.65642       -1.61605
H          7.37173        0.00383       -1.85819
C          6.76948        1.98097       -1.22689
C          8.17207        2.50647       -1.12180
H          8.18312        3.58884       -0.93097
H          8.74222        2.32020       -2.04541
H          8.72005        2.01707       -0.29994
C          1.49966        2.20898        0.68060
C          0.81183        2.57717       -0.47910
H          0.61961        1.83964       -1.25772
C          1.73174        3.16210        1.67348
H          2.27193        2.86023        2.57279
C          0.38906        3.89241       -0.63601
H         -0.14591        4.16429       -1.54976
C          1.30221        4.47471        1.49497
H          1.51165        5.21312        2.27484
C          0.62930        4.87189        0.33484
C          0.16755        6.28544        0.12863
H         -0.92960        6.32891        0.04067
H          0.59028        6.71664       -0.79267
H          0.46588        6.93215        0.96648
