90
Cat261.ts34.5.log	Energy: -1833649.8925536
C         -0.81757        2.78412       -1.77823
H         -0.74246        2.86037       -2.86676
H         -1.82338        2.99575       -1.39827
C          0.31114        3.24010       -1.00950
H          1.22829        3.54388       -1.52063
H          0.12283        3.84090       -0.11144
H          0.51165        2.12692        0.09034
Ir         0.15314        0.98998       -1.09416
C         -1.07457        0.19578        2.11694
C         -3.12401        1.20989        0.41023
C         -2.15460       -1.49644        0.05387
C          1.89772       -1.97433       -0.07650
C          3.39861       -0.16508       -1.68535
C          2.88756        0.42967        1.13743
P          2.03408       -0.16943       -0.40257
P         -1.54258        0.23945        0.34298
C          0.16909        0.15513       -2.78574
O          0.17887       -0.37680       -3.81609
C         -0.18995       -0.80110        2.55836
C         -1.47354        1.18070        3.02948
C         -0.13109        0.16962        4.77184
C         -1.00377        1.16762        4.34359
C          0.27248       -0.81803        3.87088
H          0.15050       -1.57529        1.86631
H          0.95515       -1.60939        4.19089
H          0.23339        0.16000        5.80138
H         -1.32802        1.94581        5.03898
H         -2.15287        1.97741        2.72158
H         -3.65070        0.94710        1.34031
H         -2.82516        2.26980        0.49453
C         -4.06416        1.01967       -0.75190
C         -3.62297        0.80899       -2.06411
H         -2.55077        0.78775       -2.27320
C         -5.44496        1.03976       -0.51621
H         -5.81256        1.18332        0.50308
C         -4.52702        0.61114       -3.10604
H         -4.18541        0.43911       -4.12840
C         -6.36197        0.85411       -1.54565
H         -7.43797        0.86421       -1.36280
C         -5.88830        0.63656       -2.83395
F         -6.75880        0.44721       -3.82535
H         -2.28304       -1.57382       -1.03543
H         -1.30713       -2.15113        0.30742
C         -3.41047       -1.90261        0.76610
C         -3.43493       -2.13671        2.14892
H         -2.51661       -2.04343        2.73107
C         -4.60739       -2.04696        0.05276
H         -4.61439       -1.86810       -1.02520
C         -4.61379       -2.48810        2.80053
H         -4.63801       -2.67217        3.87613
C         -5.79428       -2.40158        0.68818
H         -6.72744       -2.51085        0.13289
C         -5.78310       -2.61314        2.06010
F         -6.91526       -2.94850        2.68010
C          1.01268       -2.71383       -0.87189
C          2.65662       -2.64519        0.89131
C          1.63327       -4.74674        0.27530
C          2.51717       -4.02033        1.07148
C          0.88626       -4.09121       -0.70307
H          0.41206       -2.19626       -1.62370
H          0.19160       -4.65259       -1.33239
H          1.52679       -5.82484        0.41674
H          3.11277       -4.52847        1.83362
H          3.37391       -2.10247        1.50903
H          2.90613       -0.52393       -2.60179
H          3.63146        0.89711       -1.85415
C          4.61424       -0.97294       -1.36125
C          5.72875       -0.39979       -0.73431
H          5.74150        0.67324       -0.52701
C          4.65179       -2.34747       -1.63828
H          3.79739       -2.81909       -2.12933
C          6.83804       -1.16442       -0.37954
H          7.70930       -0.71986        0.10463
C          5.75154       -3.12630       -1.29472
H          5.78301       -4.19588       -1.50928
C          6.83200       -2.52419       -0.66124
F          7.88706       -3.26499       -0.32453
H          2.37428       -0.07129        1.97022
H          3.92672        0.06498        1.11569
C          2.82732        1.91151        1.33593
C          3.64095        2.79020        0.61161
H          4.37146        2.39580       -0.09808
C          1.90197        2.45590        2.23515
H          1.25314        1.78959        2.80690
C          3.53845        4.16980        0.77101
H          4.16972        4.86029        0.20904
C          1.78636        3.83236        2.40914
H          1.06750        4.25944        3.11072
C          2.60680        4.67472        1.66958
F          2.50031        5.99368        1.82593
