102
Cat260.ts34.5.log	Energy: -1683277.9251115
C          0.04010       -3.01552       -2.51027
H         -0.34430       -2.99832       -3.53390
H          1.09615       -3.30300       -2.45063
C         -0.85223       -3.49037       -1.48252
H         -1.89175       -3.72316       -1.72749
H         -0.45137       -4.16619       -0.71752
H         -0.70017       -2.45214       -0.29626
Ir        -0.60354       -1.24523       -1.46939
C          1.44847        0.25243        0.99845
C          2.57246       -2.11964       -0.11171
C          2.57224        0.19324       -1.86736
C         -1.52208        1.70981        0.29321
C         -3.65445        0.45822       -1.08989
C         -2.64009       -0.69991        1.40810
P         -2.06230        0.02508       -0.20131
P          1.48670       -0.66883       -0.59526
C         -1.01641       -0.27618       -3.03100
O         -1.23808        0.36858       -3.96987
C          1.75662        1.60212        1.20205
C          0.94657       -0.47994        2.08805
C          1.13544        1.43741        3.53985
C          0.80029        0.09632        3.34480
C          1.60179        2.18284        2.46161
H          2.10777        2.22338        0.38309
H          1.84471        3.24024        2.58833
H          1.01755        1.89905        4.52300
H          0.41661       -0.50269        4.17511
H          0.65298       -1.52242        1.94120
H          2.04075       -2.62075        0.71064
H          2.53116       -2.80533       -0.97162
C          3.99059       -1.80758        0.24935
C          5.02462       -2.03704       -0.66830
H          4.79816       -2.50057       -1.63263
C          4.31455       -1.23205        1.48526
H          3.51928       -1.04465        2.20980
C          6.33560       -1.67918       -0.36118
H          7.13174       -1.85750       -1.08798
C          5.62249       -0.85973        1.80660
C          5.92631       -0.23582        3.13787
H          5.09910        0.40762        3.47228
H          6.07500       -1.00717        3.91191
H          6.84233        0.37110        3.09893
C          6.63328       -1.08768        0.86416
H          7.66227       -0.79831        1.09473
H          3.33216       -0.55801       -2.13233
H          1.90965        0.30134       -2.73532
C          3.23275        1.50099       -1.55977
C          2.68113        2.69360       -2.04334
H          1.79640        2.65572       -2.68448
C          4.38224        1.56643       -0.76636
H          4.82658        0.64233       -0.39444
C          3.24863        3.91874       -1.70180
H          2.81255        4.84584       -2.08286
C          4.95770        2.78759       -0.40557
C          6.15120        2.81830        0.50445
H          6.71366        3.75807        0.40798
H          5.83759        2.72395        1.55777
H          6.83146        1.97943        0.29736
C          4.37215        3.96793       -0.87886
H          4.80846        4.93364       -0.60896
C         -0.81200        2.45733       -0.65507
C         -1.85241        2.30675        1.51364
C         -0.78707        4.36449        0.82406
C         -1.47811        3.62325        1.77996
C         -0.45624        3.77796       -0.39739
H         -0.53074        1.98689       -1.60086
H          0.10017        4.34574       -1.14625
H         -0.49864        5.39762        1.03291
H         -1.73596        4.07244        2.74212
H         -2.41547        1.75600        2.26823
H         -3.31745        0.94147       -2.01955
H         -4.10018       -0.50374       -1.38186
C         -4.60591        1.32586       -0.32921
C         -5.64054        0.77419        0.43990
H         -5.80468       -0.30646        0.43716
C         -4.44299        2.71536       -0.32190
H         -3.64062        3.15718       -0.91939
C         -6.46871        1.59484        1.20035
H         -7.27482        1.15403        1.79199
C         -5.25934        3.55453        0.44261
C         -5.01779        5.03580        0.44602
H         -4.01203        5.26315        0.83508
H         -5.06941        5.45153       -0.57254
H         -5.75332        5.56594        1.06712
C         -6.27612        2.97532        1.20806
H         -6.92679        3.61343        1.81222
H         -1.85980       -0.44372        2.13933
H         -3.56438       -0.17761        1.70407
C         -2.83522       -2.18456        1.36399
C         -3.87046       -2.77116        0.62512
H         -4.58578       -2.14194        0.09272
C         -1.94288       -3.02619        2.03273
H         -1.14060       -2.57736        2.62496
C         -3.99057       -4.15525        0.55706
H         -4.80309       -4.60091       -0.02190
C         -2.03966       -4.42112        1.96859
C         -1.02906       -5.28390        2.66763
H         -0.84057       -4.93308        3.69369
H         -1.35790       -6.33121        2.72005
H         -0.06182       -5.26670        2.13771
C         -3.07923       -4.97720        1.21863
H         -3.17777       -6.06413        1.15409
