62
Cat266.ts34.5.log	Energy: -1337526.7242717
C          0.60385       -3.74853       -0.57352
H         -0.21635       -4.42961       -0.81547
H          1.35288       -3.64455       -1.36316
C          1.02621       -3.68801        0.79849
H          0.46128       -4.22582        1.56444
H          2.10004       -3.64951        1.01170
H          1.18176       -2.10101        1.11888
Ir        -0.17655       -1.87041        0.16269
C          2.30691        0.52747       -0.79999
O          1.71636       -1.45828       -2.51508
O          0.12960        0.56021       -2.18623
C         -1.95613        1.08086        0.76791
O         -1.63493       -0.61654        2.85435
O          0.28719        0.90119        2.04285
P         -0.84235       -0.15667        1.49326
P          0.96517       -0.58116       -1.33849
C         -1.96886       -2.38924       -0.20170
O         -3.05648       -2.70097       -0.44186
C          3.49049       -0.05444       -0.31828
H          3.60542       -1.14233       -0.34634
C          2.17717        1.91398       -0.74948
H          1.26525        2.37332       -1.13491
C          4.51297        0.72773        0.19135
H          5.44102        0.28766        0.56117
C          3.19272        2.71476       -0.22342
H          3.05773        3.79639       -0.19512
C          4.36913        2.12358        0.25030
O          5.40643        2.80478        0.77422
C          5.32350        4.19955        0.86185
H          4.48188        4.52182        1.50040
H          6.26278        4.54322        1.31324
H          5.21302        4.66806       -0.13205
C          2.40590       -0.82137       -3.56887
H          1.75664       -0.10398       -4.09584
H          3.29554       -0.28181       -3.20218
H          2.72507       -1.60383       -4.27126
C         -1.20546        0.35904       -2.59360
H         -1.23944       -0.02365       -3.62675
H         -1.71819       -0.35533       -1.92966
H         -1.72348        1.32744       -2.54498
C         -1.51707        2.36202        0.40801
H         -0.49555        2.65982        0.64896
C         -3.26980        0.71159        0.46716
H         -3.63324       -0.28387        0.73506
C         -2.36654        3.24230       -0.24480
H         -2.03769        4.24241       -0.53380
C         -4.13442        1.58950       -0.18281
H         -5.15277        1.26839       -0.40195
C         -3.68222        2.86380       -0.54910
O         -4.43311        3.78047       -1.18769
C         -5.75286        3.45711       -1.52760
H         -6.36562        3.23965       -0.63510
H         -6.16982        4.33412       -2.03848
H         -5.80034        2.59030       -2.21005
C         -2.10447        0.34389        3.77870
H         -1.28764        0.99214        4.13463
H         -2.88711        0.98156        3.33486
H         -2.52838       -0.20513        4.63034
C          1.53059        0.48365        2.55698
H          1.45721        0.28504        3.63898
H          1.88631       -0.42590        2.04685
H          2.25379        1.29126        2.37857
