98
Cat276.ts34.5.log	Energy: -1728308.0001266
C         -1.29350       -0.30144       -3.56074
H         -0.86923       -1.00586       -4.28200
H         -2.38063       -0.37825       -3.45348
C         -0.70152        1.01215       -3.50328
H          0.19631        1.23212       -4.08911
H         -1.37733        1.87515       -3.45088
H         -0.56472        1.31131       -1.97546
Ir        -0.13245       -0.30313       -1.75214
C         -2.10878        1.05501        0.82399
C         -3.57295       -0.78944       -0.84086
C         -1.79325       -1.81038        1.03672
C          2.24631       -0.86126        0.77349
C          3.18890        0.78185       -1.35679
C          1.47845        1.91617        0.59426
P          1.64763        0.38779       -0.41963
P         -1.88164       -0.44497       -0.19672
C          0.73485       -1.93945       -2.10411
O          1.26767       -2.95317       -2.28295
C         -2.58492        2.22179        0.20015
H         -2.92290        2.17910       -0.83920
C         -1.66193        1.15643        2.14112
H         -1.29633        0.26806        2.66032
C         -2.62507        3.43017        0.87242
H         -3.00442        4.33386        0.39230
C         -1.66150        2.37609        2.82043
H         -1.27403        2.41574        3.83821
C         -2.13811        3.52317        2.18480
O         -2.14895        4.75514        2.73823
C         -1.68694        4.90227        4.05225
H         -0.63086        4.59678        4.15014
H         -1.77583        5.96767        4.30017
H         -2.29425        4.31777        4.76573
C         -3.68782       -1.83618       -1.76406
H         -2.78632       -2.36153       -2.09183
C         -4.72782       -0.12275       -0.42069
H         -4.65160        0.68226        0.31470
C         -4.93980       -2.20216       -2.24854
H         -5.02621       -3.02546       -2.96201
C         -5.99156       -0.47097       -0.91183
C         -7.21695        0.27940       -0.47494
H         -8.08044       -0.39197       -0.35602
H         -7.05194        0.79845        0.48007
H         -7.49892        1.04266       -1.21956
C         -6.08217       -1.52221       -1.83053
H         -7.06150       -1.81352       -2.22085
C         -2.73387       -1.91398        2.06991
H         -3.51459       -1.15723        2.18070
C         -0.82779       -2.80608        0.89071
H         -0.10280       -2.71478        0.08023
C         -2.67712       -2.99141        2.94875
H         -3.40734       -3.07138        3.75813
C         -0.76840       -3.90504        1.75487
C          0.28200       -4.96288        1.57941
H          0.87931       -4.77912        0.67550
H          0.97101       -4.98140        2.43881
H         -0.17012       -5.96387        1.49664
C         -1.70344       -3.97820        2.79183
H         -1.67443       -4.82459        3.48445
C          1.57532       -1.06037        1.99029
H          0.74747       -0.40461        2.26556
C          3.27522       -1.74132        0.43478
H          3.80772       -1.61767       -0.51090
C          1.93581       -2.08634        2.84654
H          1.40938       -2.24839        3.78868
C          3.63458       -2.79307        1.27857
H          4.43470       -3.46733        0.97306
C          2.96429       -2.96995        2.49234
O          3.22020       -3.96612        3.36686
C          4.21356       -4.90062        3.04866
H          5.20429       -4.42523        2.94047
H          4.25210       -5.61507        3.88068
H          3.97845       -5.44709        2.11823
C          3.25536        0.50237       -2.72110
H          2.37852        0.06453       -3.20782
C          4.30064        1.34360       -0.71490
H          4.25082        1.57223        0.35290
C          4.42621        0.77728       -3.42983
H          4.47851        0.55494       -4.49855
C          5.47673        1.62594       -1.41034
C          6.66270        2.23170       -0.71669
H          6.92410        3.20832       -1.15452
H          6.46643        2.38489        0.35362
H          7.55187        1.58794       -0.80940
C          5.52320        1.33282       -2.78184
H          6.43579        1.54800       -3.34560
C          2.10269        2.07529        1.83634
H          2.65117        1.24711        2.28879
C          0.78649        2.99805        0.04037
H          0.28412        2.86669       -0.92158
C          2.03049        3.30017        2.49853
H          2.51894        3.41856        3.46929
C          0.72203        4.23650        0.68224
C         -0.00569        5.39670        0.07080
H         -0.50022        5.11049       -0.86731
H         -0.77287        5.77910        0.76176
H          0.68622        6.22555       -0.14962
C          1.35324        4.37136        1.92540
H          1.31142        5.33246        2.44626
