106
Cat230.ts34.5.log	Energy: -1777970.9140723
C         -0.75156       -3.26865       -1.11394
H         -0.94011       -4.08641       -0.41342
H         -1.58626       -3.07790       -1.79471
C          0.59171       -3.11756       -1.61318
H          1.40009       -3.72496       -1.19677
H          0.72498       -2.91284       -2.68239
H          0.83790       -1.55254       -1.55258
Ir         0.04339       -1.55140       -0.07662
C         -1.21268        1.27208       -2.03612
O         -3.00402       -0.48933       -1.21378
O         -1.85239        0.97614        0.60669
C          1.25705        1.12935        2.01777
O          3.07275       -0.59653        1.12966
O          1.96533        0.96285       -0.62760
P          1.57610       -0.05087        0.64599
P         -1.49017        0.00662       -0.71868
C         -0.31329       -2.34543        1.61691
O         -0.58910       -2.84313        2.62215
H         -0.64783        2.04954       -1.48763
C         -2.46520        1.90724       -2.64556
H         -3.12461        2.31423       -1.86759
H         -3.04140        1.11986       -3.15847
C         -2.08530        3.00384       -3.63606
H         -2.99728        3.43691       -4.07827
H         -1.58718        3.82536       -3.08928
C         -1.15635        2.48491       -4.72664
H         -0.86301        3.30152       -5.40638
H         -1.70171        1.74722       -5.34300
C          0.07735        1.82023       -4.12776
H          0.68835        2.58039       -3.60758
H          0.71678        1.40229       -4.92226
C         -0.29134        0.72778       -3.13034
H         -0.80367       -0.10080       -3.65327
H          0.61486        0.30837       -2.67131
C         -3.68466       -1.53328       -0.65287
C         -3.62045       -1.81258        0.71106
H         -3.00275       -1.18929        1.35957
C         -4.47612       -2.31043       -1.50114
H         -4.51028       -2.06612       -2.56436
C         -4.32540       -2.89732        1.24770
C         -4.22077       -3.19583        2.71498
H         -4.65986       -2.38296        3.31582
H         -4.74287       -4.12697        2.97538
H         -3.16746       -3.29043        3.02047
C         -5.18852       -3.37838       -0.96813
H         -5.80807       -3.99427       -1.62462
C         -5.10940       -3.67710        0.39305
H         -5.66458       -4.52713        0.79752
C         -2.68665        2.05951        0.62016
C         -4.06992        1.88752        0.61500
H         -4.47778        0.87546        0.58023
C         -2.12944        3.33819        0.68095
H         -1.04377        3.44883        0.70667
C         -4.92251        2.99624        0.63577
C         -6.41074        2.80020        0.64136
H         -6.71313        2.01255       -0.06459
H         -6.76127        2.49148        1.64002
H         -6.94093        3.72512        0.37458
C         -2.97442        4.44383        0.70283
H         -2.54834        5.44923        0.74258
C         -4.35804        4.27684        0.67151
H         -5.01164        5.15274        0.68171
H          0.71085        1.93639        1.49367
C          2.49738        1.72298        2.69160
H          3.18155        2.16244        1.95363
H          3.05220        0.90663        3.18229
C          2.09509        2.77424        3.72116
H          2.99686        3.17691        4.21038
H          1.62081        3.62507        3.19863
C          1.12857        2.21292        4.75672
H          0.82101        2.99979        5.46458
H          1.64852        1.44208        5.35400
C         -0.09084        1.58866        4.08929
H         -0.67986        2.37706        3.58619
H         -0.75762        1.13862        4.84221
C          0.29988        0.53806        3.05618
H          0.78779       -0.31653        3.55744
H         -0.59645        0.15240        2.55286
C          3.67318       -1.68187        0.55074
C          3.79660       -1.78985       -0.83361
H          3.39041       -1.00061       -1.46971
C          4.17485       -2.67590        1.38963
H          4.05504       -2.56889        2.46878
C          4.41841       -2.90553       -1.40609
C          4.50571       -3.02923       -2.89978
H          3.51686       -3.25499       -3.33216
H          4.85290       -2.09231       -3.36122
H          5.19138       -3.83387       -3.19965
C          4.80405       -3.77983        0.82434
H          5.20116       -4.56465        1.47255
C          4.92384       -3.89777       -0.56080
H          5.41595       -4.77327       -0.99189
C          2.77149        2.06781       -0.56204
C          4.15716        1.93307       -0.49846
H          4.59305        0.93275       -0.47114
C          2.18011        3.33148       -0.60079
H          1.09398        3.41226       -0.67164
C          4.97745        3.06510       -0.44110
C          6.46914        2.90979       -0.37863
H          6.76076        2.14472        0.35643
H          6.87197        2.59128       -1.35403
H          6.96207        3.85348       -0.10678
C          2.99268        4.45982       -0.54481
H          2.53949        5.45374       -0.56715
C          4.37793        4.32972       -0.45808
H          5.00554        5.22300       -0.40778
