78
Cat239.ts34.5.log	Energy: -1391118.2970789
C          1.43306       -2.77635       -0.93393
H          1.13518       -3.27125       -1.86241
H          2.49360       -2.50734       -0.89037
C          0.79989       -3.21668        0.27991
H         -0.00085       -3.96023        0.23744
H          1.42739       -3.32239        1.17217
H          0.35294       -1.87200        1.06144
Ir         0.00301       -1.22075       -0.44687
C          3.27565       -0.27977        0.42275
O          2.12826        1.28758       -1.34539
O          1.33832        1.46263        1.08548
C         -2.35988        1.36737       -0.34166
O         -3.23918       -0.96494        0.46074
O         -1.56982        0.26066        2.00609
P         -1.79870       -0.17473        0.45363
P          1.63669        0.34375       -0.08639
C         -0.85378       -1.29443       -2.13812
O         -1.37927       -1.31429       -3.16840
C          3.36418       -0.94252        1.65493
C          4.39908       -0.21922       -0.40669
C          5.68397       -1.45631        1.22566
C          5.59875       -0.80628       -0.00418
C          4.56406       -1.52258        2.05660
H          2.47977       -1.00229        2.29661
H          4.62687       -2.03324        3.02068
H          6.62435       -1.91701        1.53775
H          6.47401       -0.75423       -0.65654
H          4.32147        0.29807       -1.36474
C          1.35475        1.41070       -2.54571
H          0.30870        1.14843       -2.30877
C          1.88245        0.43463       -3.57667
H          1.83515       -0.59047       -3.18131
H          2.92800        0.66780       -3.83352
H          1.27802        0.47493       -4.49503
C          1.42320        2.85423       -2.99423
H          0.98733        3.52018       -2.23636
H          2.46691        3.15793       -3.16937
H          0.85884        2.98916       -3.92873
C          2.29704        2.46481        1.44936
H          3.25616        2.23730        0.95142
C          2.48750        2.39976        2.95041
H          2.88118        1.41792        3.24811
H          1.52560        2.55664        3.46137
H          3.19411        3.17360        3.28633
C          1.80707        3.81686        0.96954
H          1.68006        3.80944       -0.12129
H          0.84286        4.06920        1.43819
H          2.53051        4.60461        1.22869
C         -3.56746        1.45376       -1.03899
C         -1.49472        2.46955       -0.31247
C         -3.04955        3.73182       -1.66242
C         -1.84360        3.64855       -0.96386
C         -3.90720        2.63420       -1.70031
H         -4.23646        0.59185       -1.05513
H         -4.85081        2.69603       -2.24793
H         -3.31960        4.65535       -2.18043
H         -1.16834        4.50744       -0.92970
H         -0.54422        2.38817        0.22099
C         -3.33756       -2.38389        0.29964
H         -2.35253       -2.74286       -0.05450
C         -4.37617       -2.65189       -0.76792
H         -4.07341       -2.18918       -1.71874
H         -5.35412       -2.24048       -0.47193
H         -4.49135       -3.73361       -0.93331
C         -3.65074       -3.02342        1.63624
H         -2.86324       -2.79142        2.36823
H         -4.61193       -2.65862        2.03151
H         -3.71435       -4.11734        1.53336
C         -2.48213        1.08862        2.73651
H         -3.17197        1.57515        2.02352
C         -1.66074        2.15361        3.43191
H         -1.10871        2.75294        2.69486
H         -0.92962        1.68559        4.10864
H         -2.30749        2.82253        4.01903
C         -3.28396        0.22634        3.68983
H         -3.87705       -0.50967        3.13138
H         -2.61140       -0.31189        4.37540
H         -3.96901        0.84554        4.28852
