90
Cat210.ts34.5.log	Energy: -1395659.7608606
C         -0.88933       -2.70511       -1.88802
H         -0.43731       -3.69090       -1.74985
H         -1.97550       -2.68349       -1.76762
C         -0.28008       -1.83653       -2.85765
H          0.63646       -2.15293       -3.36436
H         -0.94004       -1.25689       -3.51385
H         -0.07920       -0.43196       -2.16490
Ir         0.18227       -1.24438       -0.70140
C         -2.42065        1.24983       -0.41628
O         -3.02589       -1.40420        0.02619
O         -1.76351       -0.01088        1.80368
C          1.46647        2.05277       -0.24258
O          2.39575        0.00641        1.35204
O          3.18098        0.23157       -1.09455
P          1.81749        0.24279       -0.17111
P         -1.75545       -0.36567        0.19134
C          1.05038       -2.55139        0.35504
O          1.56990       -3.33464        1.02978
H         -1.50363        1.86620       -0.44964
C         -3.42812        1.97512        0.47451
H         -3.01219        2.09108        1.48583
H         -4.34099        1.36652        0.58203
C         -3.80492        3.32910       -0.12082
H         -4.56017        3.82325        0.51203
H         -2.91671        3.98661       -0.11250
C         -4.31369        3.19315       -1.55174
H         -4.55530        4.18343       -1.97100
H         -5.25910        2.61998       -1.54705
C         -3.29949        2.47428       -2.43487
H         -2.39106        3.09780       -2.52467
H         -3.69466        2.35299       -3.45666
C         -2.91593        1.11633       -1.85648
H         -3.78564        0.43937       -1.88408
H         -2.13618        0.64157       -2.47383
C         -4.21971       -1.45240        0.81010
H         -4.14671       -0.70359        1.61728
C         -4.31417       -2.83611        1.42477
H         -3.44044       -3.04411        2.05468
H         -4.35384       -3.59856        0.63172
H         -5.22070       -2.92753        2.04219
C         -5.41649       -1.15391       -0.07353
H         -5.37014       -0.14107       -0.49601
H         -5.45572       -1.87096       -0.90785
H         -6.35091       -1.24059        0.50134
C         -0.78707       -0.52078        2.72186
H          0.19411       -0.50875        2.21815
C         -1.10966       -1.94520        3.12120
H         -1.14222       -2.59500        2.23519
H         -2.07878       -1.99786        3.64181
H         -0.33106       -2.33652        3.79277
C         -0.76036        0.43252        3.89741
H         -0.51389        1.45158        3.56700
H         -1.73930        0.45894        4.40102
H         -0.00233        0.11365        4.62833
H          0.78513        2.11600       -1.11360
C          2.66187        2.96664       -0.51224
H          3.18476        2.64220       -1.42237
H          3.39166        2.87440        0.31074
C          2.21498        4.42125       -0.63030
H          3.08982        5.07152       -0.79385
H          1.57810        4.52815       -1.52744
C          1.43126        4.87930        0.59491
H          1.08978        5.91931        0.46687
H          2.10084        4.87877        1.47447
C          0.24852        3.95797        0.87029
H         -0.48014        4.04367        0.04334
H         -0.28379        4.27011        1.78355
C          0.69450        2.50627        0.99779
H          1.34525        2.39748        1.87987
H         -0.16852        1.85022        1.18221
C          3.73360        0.18993        1.82081
H          4.37457        0.44322        0.95970
C          4.18776       -1.12702        2.41986
H          4.12714       -1.93614        1.68067
H          3.54083       -1.39974        3.26760
H          5.22539       -1.05517        2.77936
C          3.76857        1.31637        2.83621
H          3.48893        2.27870        2.38597
H          3.06979        1.10566        3.66050
H          4.77961        1.42070        3.25786
C          3.51632       -0.82334       -1.99934
H          2.57504       -1.33404       -2.27295
C          4.42568       -1.82739       -1.32234
H          3.90698       -2.31412       -0.48428
H          5.33629       -1.33869       -0.94155
H          4.72577       -2.61288       -2.03227
C          4.13163       -0.17723       -3.22217
H          3.42802        0.53743       -3.67363
H          5.05108        0.36660       -2.95444
H          4.38631       -0.93785       -3.97525
