78
Cat243.ts34.5.log	Energy: -1735039.9435285
C         -0.85288       -1.78436       -2.89191
H         -0.64124       -2.85222       -2.99778
H         -1.90018       -1.52054       -3.07268
C          0.15926       -0.86711       -3.35007
H          1.13018       -1.24620       -3.68360
H         -0.16528        0.00081       -3.93745
H          0.24329        0.21300       -2.22326
Ir         0.05016       -1.02351       -1.09380
C         -1.64070        1.98130       -0.24118
C         -3.41973       -0.13870       -1.03490
C         -2.28159       -0.22771        1.49455
C          1.95123       -0.66988        1.85081
C          3.49307       -0.63561       -0.55364
C          2.02442        1.68187        0.18669
P          1.84243       -0.14331        0.09961
P         -1.78420        0.15338       -0.23685
C          0.31223       -2.72590       -0.32277
O          0.47015       -3.76310        0.16536
C         -1.33653        2.71528        0.91070
C         -1.71093        2.65809       -1.46887
C         -1.24393        4.76074       -0.37468
C         -1.53416        4.03660       -1.53210
C         -1.13203        4.09302        0.84201
H         -1.26500        2.20834        1.87530
H         -0.88553        4.64742        1.75057
H         -1.08826        5.84081       -0.42489
H         -1.61205        4.54902       -2.49432
H         -1.91054        2.09546       -2.38550
C         -3.76082       -1.47759       -1.27595
H         -3.03507       -2.26119       -1.04008
C         -4.35634        0.85691       -1.33453
H         -4.12439        1.90637       -1.14216
C         -5.00106       -1.81929       -1.80321
H         -5.27718       -2.85829       -1.99168
C         -5.59892        0.52960       -1.87439
H         -6.33697        1.29698       -2.11523
C         -5.90504       -0.80565       -2.10183
F         -7.09070       -1.12281       -2.61732
C         -3.32886        0.47193        2.11483
H         -3.83082        1.28606        1.58605
C         -1.67972       -1.28443        2.17908
H         -0.87215       -1.83692        1.69689
C         -3.74595        0.14048        3.39770
H         -4.55640        0.67637        3.89506
C         -2.09440       -1.63746        3.46214
H         -1.62390       -2.45829        4.00572
C         -3.11853       -0.91518        4.05577
F         -3.51750       -1.23621        5.28447
C          2.73569       -1.76903        2.21806
C          1.14760       -0.05327        2.81869
C          1.93741       -1.60205        4.49404
C          1.15015       -0.50861        4.13380
C          2.72336       -2.23401        3.53211
H          3.35921       -2.26691        1.47229
H          3.33680       -3.09593        3.80474
H          1.93441       -1.96409        5.52487
H          0.51953       -0.01560        4.87719
H          0.50779        0.78643        2.53908
C          3.58044       -1.67679       -1.48172
H          2.65314       -2.15569       -1.81156
C          4.67037       -0.00614       -0.12633
H          4.62390        0.81647        0.59071
C          4.81486       -2.09580       -1.97369
H          4.89853       -2.90891       -2.69700
C          5.90888       -0.41037       -0.61087
H          6.83513        0.07081       -0.29166
C          5.96347       -1.45410       -1.53032
F          7.14726       -1.84141       -1.99707
C          2.55544        2.34916        1.29818
H          2.83599        1.78941        2.19255
C          1.68318        2.43146       -0.94495
H          1.25231        1.92530       -1.81122
C          2.72569        3.73182        1.28808
H          3.12641        4.26436        2.15246
C          1.86637        3.80770       -0.97702
H          1.59437        4.39978       -1.85155
C          2.37667        4.44295        0.14789
F          2.52217        5.76627        0.13492
