98
Cat283.ts34.5.log	Energy: -1728308.6968880
C          1.20831       -3.29263       -1.35053
H          1.14635       -3.60477       -2.39703
H          2.22655       -3.33171       -0.94771
C          0.11854       -3.66941       -0.48718
H         -0.76709       -4.15082       -0.90990
H          0.35045       -4.05044        0.51495
H         -0.17340       -2.37528        0.35337
Ir         0.08161       -1.48481       -1.05012
C          1.21600        0.11899        1.89535
C          3.34409       -1.11667        0.45887
C          2.19235        1.36169       -0.50112
C         -1.93840        1.44339       -0.64406
C         -3.26755       -0.81741       -1.78833
C         -2.68389       -0.71367        1.07855
P         -1.90320       -0.38893       -0.57906
P          1.69825       -0.30466        0.17783
C         -0.01083       -1.02774       -2.87696
O         -0.07027       -0.72260       -3.99501
C          1.69945       -0.55886        3.02465
H          2.45814       -1.33656        2.92121
C          0.23556        1.09636        2.09810
H         -0.17993        1.63846        1.24494
C          1.22257       -0.27044        4.29695
H          1.59810       -0.79929        5.17509
C         -0.24768        1.40340        3.36850
H         -1.00783        2.17857        3.47121
C          0.24450        0.71452        4.48480
O         -0.15819        0.92878        5.75217
C         -1.15246        1.88528        5.98965
H         -2.09525        1.63430        5.47186
H         -1.33319        1.89003        7.07192
H         -0.83472        2.89578        5.67707
H          3.11890       -2.14668        0.78876
H          3.84026       -0.60844        1.29989
C          4.28817       -1.14058       -0.71584
C          5.66483       -1.04302       -0.47428
H          6.01965       -0.94366        0.55510
C          3.85421       -1.24061       -2.04317
H          2.78477       -1.31817       -2.25323
C          6.58129       -1.03994       -1.52160
H          7.64953       -0.95686       -1.30643
C          4.77013       -1.22833       -3.09481
H          4.40627       -1.29835       -4.12292
C          6.13631       -1.12731       -2.84063
H          6.85222       -1.11669       -3.66606
H          1.29370        1.98879       -0.40167
H          2.34079        1.20018       -1.57866
C          3.39561        2.01363        0.11183
C          4.60879        2.05012       -0.58790
H          4.66491        1.60712       -1.58539
C          3.35019        2.58896        1.39059
H          2.41396        2.58447        1.95159
C          5.74461        2.62868       -0.02591
H          6.67940        2.63890       -0.59172
C          4.48603        3.16485        1.95469
H          4.42772        3.60573        2.95303
C          5.68993        3.18430        1.25079
H          6.58035        3.63650        1.69439
C         -2.78793        2.23840        0.14332
H         -3.49381        1.77751        0.83642
C         -1.08523        2.08769       -1.54315
H         -0.41549        1.48645       -2.16275
C         -2.75794        3.62127        0.05433
H         -3.41194        4.24385        0.66769
C         -1.05568        3.47707       -1.65722
H         -0.37111        3.93750       -2.36980
C         -1.88932        4.25601       -0.84597
O         -1.92553        5.60014       -0.86176
C         -1.06899        6.28970       -1.73090
H         -1.27148        6.04253       -2.78773
H         -1.25731        7.35917       -1.57440
H         -0.00758        6.07775       -1.51316
H         -3.39906       -1.90653       -1.70199
H         -2.81592       -0.63286       -2.77470
C         -4.55053       -0.06883       -1.62211
C         -4.71521        1.19554       -2.20585
H         -3.90942        1.61003       -2.81666
C         -5.59966       -0.57873       -0.84509
H         -5.50678       -1.57244       -0.39885
C         -5.88128        1.92939       -2.00894
H         -5.98520        2.91318       -2.47286
C         -6.76782        0.15484       -0.64350
H         -7.57322       -0.26536       -0.03614
C         -6.91099        1.41481       -1.22156
H         -7.82613        1.99098       -1.06589
H         -3.75436       -0.46490        1.00356
H         -2.21723        0.00644        1.76530
C         -2.47911       -2.10215        1.59719
C         -1.50089       -2.34249        2.56995
H         -0.91421       -1.50653        2.95618
C         -3.21305       -3.18933        1.10893
H         -3.98172       -3.02727        0.34970
C         -1.26174       -3.63197        3.03996
H         -0.49417       -3.79378        3.80085
C         -2.97399       -4.48073        1.57452
H         -3.55718       -5.31584        1.17893
C         -1.99570       -4.70759        2.54174
H         -1.80832       -5.72007        2.90707
