114
Cat226.ts34.5.log	Energy: -1687813.3143569
C         -0.64446       -0.50643       -3.65489
H         -0.66159       -1.46284       -4.18570
H         -1.55961        0.07891       -3.79465
C          0.61424        0.20825       -3.64436
H          1.50345       -0.27678       -4.05787
H          0.59452        1.28224       -3.87207
H          0.73313        0.73500       -2.19474
Ir         0.12518       -0.74640       -1.66236
C         -2.26885        1.92099       -0.69114
C         -3.28384       -0.75917       -1.36735
C         -1.85560       -0.23931        1.27182
C          1.85344       -2.37825        0.89017
C          3.49192       -0.62749       -0.96620
C          2.01128        0.48816        1.26881
P          1.85062       -0.77306       -0.08667
P         -1.80255        0.11044       -0.58142
C         -0.00513       -2.62047       -1.74338
O         -0.12455       -3.77273       -1.82307
H         -1.65049        2.37818        0.10065
C         -3.72668        2.28979       -0.41086
H         -4.08470        1.83732        0.52247
H         -4.35605        1.88975       -1.22454
C         -3.90490        3.80474       -0.36720
H         -4.95978        4.05179       -0.16485
H         -3.32505        4.20789        0.48246
C         -3.44171        4.45645       -1.66433
H         -3.52983        5.55339       -1.60220
H         -4.10918        4.13767       -2.48571
C         -2.00997        4.05674       -2.00197
H         -1.32948        4.48581       -1.24455
H         -1.70704        4.48408       -2.97206
C         -1.82846        2.54155       -2.01709
H         -2.42406        2.10796       -2.84149
H         -0.78020        2.28011       -2.22524
H         -3.70457       -0.02239       -2.06781
H         -2.81622       -1.53696       -1.98483
C         -4.37291       -1.34868       -0.52286
C         -5.58883       -0.67632       -0.35471
H         -5.73252        0.28837       -0.84445
C         -4.20293       -2.61254        0.08559
C         -2.96575       -3.42904       -0.14553
H         -2.04016       -2.85525        0.00447
H         -2.91922       -3.79681       -1.18346
H         -2.93724       -4.30499        0.51680
C         -6.61216       -1.20132        0.42882
H         -7.54721       -0.64881        0.54651
C         -5.23615       -3.12167        0.88061
H         -5.09914       -4.09493        1.35992
C         -6.43006       -2.42687        1.06379
H         -7.21823       -2.84964        1.69124
H         -2.10501       -1.30716        1.34528
H         -0.80112       -0.15711        1.56582
C         -2.73766        0.56078        2.18830
C         -4.03008        0.10088        2.47112
H         -4.35014       -0.85774        2.06292
C         -2.30225        1.76749        2.78062
C         -0.88370        2.25024        2.67879
H         -0.47778        2.22938        1.65943
H         -0.21482        1.62876        3.29854
H         -0.79118        3.28286        3.04216
C         -4.91695        0.84129        3.24546
H         -5.92248        0.45678        3.43107
C         -3.21179        2.50615        3.54705
H         -2.87836        3.44889        3.98995
C         -4.51398        2.06658        3.76913
H         -5.20107        2.66994        4.36722
H          0.77424       -2.61385        0.87509
C          2.27605       -2.35695        2.36034
H          1.72764       -1.57985        2.91304
H          3.34687       -2.10737        2.45138
C          2.00975       -3.71367        3.01132
H          2.34423       -3.69641        4.06134
H          0.91849       -3.88585        3.03614
C          2.67720       -4.85650        2.25564
H          2.42835       -5.82185        2.72532
H          3.77493       -4.74921        2.33180
C          2.27759       -4.85680        0.78491
H          1.19999       -5.07722        0.68694
H          2.80758       -5.65418        0.23970
C          2.56335       -3.50670        0.13764
H          3.65270       -3.33069        0.14837
H          2.25996       -3.52120       -0.91911
H          3.64194       -1.61685       -1.42634
H          3.25923        0.04439       -1.80066
C          4.72671       -0.17231       -0.24105
C          5.32522       -0.99031        0.72574
H          4.87455       -1.95831        0.95071
C          5.33347        1.06537       -0.55125
C          4.77918        1.97889       -1.60541
H          3.74323        2.27634       -1.38505
H          4.78072        1.49809       -2.59724
H          5.37875        2.89591       -1.67899
C          6.48640       -0.61239        1.39447
H          6.92776       -1.27673        2.14104
C          6.49884        1.43285        0.13233
H          6.96408        2.39274       -0.10765
C          7.07689        0.61302        1.09755
H          7.98710        0.92990        1.61204
H          1.09001        0.40258        1.86767
H          2.82841        0.13776        1.91006
C          2.24805        1.92468        0.89006
C          1.46180        2.54833       -0.08483
H          0.69347        1.95595       -0.58506
C          3.23800        2.67987        1.55599
C          4.06976        2.09423        2.65934
H          4.64187        1.21749        2.32078
H          3.44332        1.77214        3.50717
H          4.79027        2.83163        3.03783
C          1.65779        3.88078       -0.44020
H          1.03430        4.33517       -1.21371
C          3.42625        4.01534        1.18239
H          4.19969        4.59694        1.69150
C          2.65449        4.61812        0.19181
H          2.82849        5.66265       -0.07750
