98
Cat267.ts34.5.log	Energy: -1633341.1976160
C         -1.07027       -2.79298       -1.73189
H         -0.51729       -3.73527       -1.68587
H         -2.08532       -2.85392       -1.32641
C         -0.85474       -1.95877       -2.88457
H         -0.09707       -2.24494       -3.61964
H         -1.72882       -1.48345       -3.34461
H         -0.66124       -0.48209       -2.31196
Ir         0.16911       -1.16288       -1.01859
C         -2.90146        0.52656       -0.18504
O         -2.31525       -1.55621        1.24718
O         -0.89241        0.56254        1.61705
C          2.74805        0.90235        0.26976
O          2.59901        0.82833       -2.33511
O          0.69682        2.01893       -1.12515
P          1.56322        0.62423       -1.07445
P         -1.46388       -0.41562        0.41009
C          1.51425       -2.28196       -0.27842
O          2.33092       -2.94986        0.19161
C         -4.22828        0.25139        0.17685
H         -4.43544       -0.58479        0.84735
C         -2.64541        1.59256       -1.05232
H         -1.61272        1.80287       -1.34888
C         -5.26703        1.03149       -0.30874
H         -6.30572        0.82954       -0.03986
C         -3.68030        2.39074       -1.53485
H         -3.44668        3.21864       -2.20492
C         -5.00214        2.11234       -1.16251
O         -6.07105        2.81838       -1.57702
C         -5.86959        3.91949       -2.41796
H         -5.40811        3.62560       -3.37722
H         -6.85973        4.34815       -2.61801
H         -5.23688        4.68937       -1.94180
C         -1.66383       -2.69282        1.79120
H         -0.97119       -3.11157        1.04059
H         -1.05815       -2.39130        2.66387
C         -2.71055       -3.70523        2.19820
H         -2.19461       -4.54218        2.70053
H         -3.37238       -3.25036        2.95680
C         -3.54351       -4.22845        1.03663
H         -2.87298       -4.70182        0.29809
H         -4.00468       -3.37148        0.51832
C         -4.61750       -5.21422        1.46556
H         -4.17970       -6.09475        1.96327
H         -5.32173       -4.75289        2.17682
H         -5.20295       -5.57555        0.60657
C         -1.70304        1.14904        2.62564
H         -1.23365        2.11974        2.85621
H         -2.71232        1.35692        2.23161
C         -1.77475        0.29259        3.87469
H         -2.37590        0.83940        4.62279
H         -2.33361       -0.62953        3.64568
C         -0.41183       -0.05405        4.45760
H          0.12461        0.87963        4.70566
H          0.19418       -0.54750        3.67959
C         -0.49569       -0.94573        5.68513
H         -1.07323       -0.46786        6.49298
H         -0.99353       -1.90028        5.44813
H          0.50228       -1.18296        6.08353
C          2.27166        0.85286        1.59063
H          1.20885        0.66846        1.76976
C          4.10687        1.13223        0.04976
H          4.48136        1.17082       -0.97452
C          3.13561        1.03853        2.65625
H          2.78005        1.00095        3.68784
C          4.98591        1.31226        1.11759
H          6.04307        1.48388        0.91387
C          4.50194        1.26642        2.43018
O          5.26660        1.42577        3.52651
C          6.64139        1.63776        3.36838
H          6.85260        2.56456        2.80609
H          7.06352        1.73153        4.37695
H          7.13065        0.79194        2.85401
C          2.48995        0.12675       -3.56181
H          1.62559       -0.55888       -3.51307
H          2.30112        0.86635       -4.35748
C          3.76064       -0.65008       -3.83627
H          3.68475       -1.07734       -4.85227
H          4.61219        0.05344       -3.86272
C          4.02912       -1.75627       -2.82565
H          3.17334       -2.45234       -2.81705
H          4.05811       -1.32212       -1.81292
C          5.31768       -2.51549       -3.09158
H          5.30696       -2.99562       -4.08386
H          6.19176       -1.84434       -3.06246
H          5.47905       -3.30415       -2.34148
C          1.28926        3.30701       -1.10165
H          2.12130        3.32496       -0.37473
H          1.70828        3.53668       -2.09597
C          0.21844        4.30168       -0.70870
H          0.64086        5.31957       -0.77372
H         -0.59396        4.25547       -1.45589
C         -0.34597        4.04132        0.68115
H          0.45011        4.20732        1.42883
H         -0.60480        2.97371        0.75131
C         -1.56055        4.89197        1.01008
H         -1.33551        5.96915        0.94464
H         -2.38866        4.68023        0.31409
H         -1.93042        4.69181        2.02748
