66
Cat208.ts34.5.log	Energy: -1198437.0081192
C         -1.33225       -3.31092       -0.10921
H         -0.86568       -4.11180        0.47083
H         -2.37780       -3.10955        0.13947
C         -0.93017       -3.16982       -1.48129
H         -0.12060       -3.78960       -1.87608
H         -1.70439       -2.95479       -2.22541
H         -0.67961       -1.57201       -1.69060
Ir        -0.05097       -1.56401       -0.13645
C         -1.78415        1.57472       -0.10230
O         -3.24421       -0.77762        0.12981
O         -1.90882        0.17016        2.11266
C          2.08148        1.31830        0.23353
O          2.96756       -0.63220       -1.32108
O          0.96317        0.72215       -2.19993
P          1.49415       -0.06806       -0.85003
P         -1.75257       -0.16624        0.49781
C          1.10156       -2.26158        1.19877
O          1.79362       -2.67940        2.02743
H         -0.71517        1.84963       -0.02891
C         -2.56933        2.60590        0.70753
H         -2.27213        2.55877        1.76488
H         -3.64634        2.37300        0.67278
C         -2.34564        4.00279        0.13471
H         -2.92729        4.74459        0.70608
H         -1.28229        4.27764        0.26296
C         -2.70670        4.06750       -1.34590
H         -2.50826        5.07486       -1.74702
H         -3.79332        3.89834       -1.45840
C         -1.95316        3.01470       -2.15206
H         -0.87297        3.24809       -2.13811
H         -2.26250        3.04444       -3.20958
C         -2.15404        1.61325       -1.58619
H         -3.20860        1.30799       -1.70562
H         -1.54116        0.88666       -2.14037
C         -4.45765       -0.24977        0.61233
H         -4.34687        0.16291        1.62766
H         -4.84206        0.54063       -0.05420
H         -5.19278       -1.06769        0.63928
C         -1.68258       -0.84398        3.06599
H         -2.41383       -1.66386        2.96641
H         -0.67074       -1.26771        2.96224
H         -1.79044       -0.38682        4.05933
H          1.46032        2.17139       -0.10441
C          3.55497        1.70029        0.06827
H          3.79984        1.89157       -0.98620
H          4.17386        0.83845        0.36614
C          3.90480        2.91523        0.92262
H          4.97426        3.15598        0.80778
H          3.34769        3.79451        0.54956
C          3.56292        2.69068        2.39057
H          3.78609        3.59399        2.98127
H          4.20747        1.88807        2.79210
C          2.10319        2.28704        2.55959
H          1.45321        3.13209        2.26559
H          1.87866        2.07907        3.61812
C          1.75085        1.07273        1.70874
H          2.31514        0.19313        2.06472
H          0.68781        0.81589        1.82482
C          3.07881       -1.86265       -2.00272
H          2.39256       -2.60971       -1.56796
H          2.84421       -1.74474       -3.07401
H          4.11723       -2.20597       -1.89778
C          1.76437        1.63828       -2.90702
H          2.76018        1.22058       -3.12812
H          1.25112        1.85999       -3.85318
H          1.89171        2.58475       -2.35302
