94
Cat242.ts34.5.log	Energy: -1773333.9114657
C         -0.67194       -3.15007       -1.40628
H         -0.49372       -4.08689       -0.87032
H         -1.68989       -3.04957       -1.79751
C          0.40978       -2.63980       -2.21124
H          1.38879       -3.12844       -2.18541
H          0.16686       -2.26328       -3.21294
H          0.44729       -1.11217       -1.89247
Ir         0.11589       -1.49333       -0.28392
C         -1.47828        1.44628       -1.47506
C         -3.29756       -0.74445       -1.07850
C         -2.36772        0.64776        1.14330
C          1.87400        0.45901        2.06978
C          3.52954       -0.86088        0.15139
C          2.09948        1.46677       -0.61769
P          1.87104       -0.08989        0.32135
P         -1.72270       -0.04389       -0.43303
C          0.23984       -2.43499        1.34441
O          0.31255       -2.99764        2.35414
C         -1.20602        2.70625       -0.93032
C         -1.43969        1.29724       -2.87001
C         -0.93173        3.64338       -3.14241
C         -1.18752        2.38818       -3.69587
C         -0.92872        3.79327       -1.75814
H         -1.21549        2.84243        0.15319
H         -0.70691        4.76600       -1.31255
H         -0.71037        4.49595       -3.78836
H         -1.17727        2.25522       -4.78067
H         -1.61417        0.31214       -3.31227
C         -4.17514       -0.09102       -1.95614
H         -3.91586        0.88892       -2.36262
C         -3.68342       -1.98797       -0.56885
H         -3.01323       -2.50658        0.12298
C         -5.38349       -0.66882       -2.31918
H         -6.06863       -0.16642       -3.00492
C         -4.89831       -2.57507       -0.91556
H         -5.16029       -3.54496       -0.49213
C         -5.75740       -1.91661       -1.80318
O         -6.94761       -2.40050       -2.21180
C         -7.37421       -3.64047       -1.72305
H         -7.48510       -3.63401       -0.62416
H         -8.35385       -3.83815       -2.17660
H         -6.68146       -4.45388       -2.00306
C         -1.88943        0.18141        2.37226
H         -1.08348       -0.55404        2.38179
C         -3.41176        1.57999        1.15032
H         -3.82472        1.94219        0.20520
C         -2.42043        0.64155        3.56905
H         -2.04268        0.28336        4.52826
C         -3.94804        2.06000        2.34157
H         -4.75777        2.78924        2.30617
C         -3.44949        1.58979        3.56531
O         -3.89947        1.99176        4.77067
C         -4.94243        2.92286        4.82759
H         -5.85998        2.54369        4.34381
H         -5.15005        3.09898        5.89078
H         -4.66512        3.88233        4.35562
C          2.67107       -0.17945        3.02601
C          0.98157        1.45621        2.48436
C          1.70447        1.18561        4.77192
C          0.90437        1.82395        3.82423
C          2.58217        0.18068        4.36993
H          3.36474       -0.96454        2.71757
H          3.20647       -0.32951        5.10738
H          1.63836        1.46815        5.82535
H          0.19990        2.60060        4.13077
H          0.33359        1.94179        1.75175
C          4.70639       -0.09380        0.16638
H          4.64672        0.99440        0.24567
C          3.64160       -2.24523        0.03227
H          2.72200       -2.83885        0.01259
C          5.94844       -0.69781        0.07301
H          6.86933       -0.11157        0.07993
C          4.88667       -2.86896       -0.05909
H          4.93351       -3.95449       -0.14885
C          6.05058       -2.09397       -0.03894
O          7.29862       -2.59177       -0.12540
C          7.46643       -3.97715       -0.23897
H          6.99190       -4.37473       -1.15344
H          8.54713       -4.16019       -0.29194
H          7.05585       -4.51359        0.63461
C          1.91724        1.43032       -2.00876
H          1.58292        0.50349       -2.48012
C          2.51317        2.66865       -0.04076
H          2.67992        2.72975        1.03655
C          2.13582        2.54976       -2.78925
H          1.98297        2.52693       -3.86898
C          2.71430        3.81424       -0.81355
H          3.02063        4.73806       -0.32224
C          2.51895        3.76047       -2.19602
O          2.65672        4.81181       -3.02863
C          3.01834        6.05224       -2.49155
H          4.00681        6.01631       -2.00033
H          3.06571        6.75824       -3.33043
H          2.27423        6.41581       -1.76043
