102
Cat202.ts34.5.log	Energy: -1635790.1575732
C         -0.99518       -4.17421       -0.63675
H         -0.84556       -4.95720        0.11215
H         -2.03048       -4.10641       -0.98795
C          0.05221       -4.00478       -1.62049
H          0.97844       -4.57883       -1.52145
H         -0.24646       -3.88865       -2.66935
H          0.24577       -2.45100       -1.73931
Ir         0.02443       -2.36757       -0.06576
O         -1.61397        0.25525       -1.43119
C         -3.40682       -1.72491       -0.42697
C         -1.93448        0.13360        1.33546
O          1.60046        0.17491        1.32063
C          3.37623       -1.72457        0.14783
C          1.87013        0.27635       -1.44848
P          1.72622       -0.84090        0.02813
P         -1.73956       -0.88059       -0.22169
C          0.43054       -2.92373        1.69596
O          0.68835       -3.20046        2.79076
C         -2.68414        0.94891       -2.07665
H         -3.56835        0.93507       -1.42128
C         -2.99846        0.25287       -3.38973
H         -3.27991       -0.79873       -3.23752
H         -2.11350        0.27085       -4.04407
H         -3.82575        0.75752       -3.91221
C         -2.27946        2.39187       -2.29123
H         -2.07934        2.88848       -1.33341
H         -1.37826        2.45090       -2.92088
H         -3.08837        2.93869       -2.79913
H         -3.45903       -2.01618       -1.48698
H         -3.22235       -2.65528        0.13044
C         -4.69112       -1.11478        0.04366
C         -5.07638       -1.24282        1.38492
H         -4.45418       -1.82129        2.07296
C         -5.54811       -0.42390       -0.82336
H         -5.29369       -0.35891       -1.88424
C         -6.24852       -0.64831        1.84639
H         -6.53205       -0.75285        2.89637
C         -6.72346        0.18644       -0.37841
C         -7.58877        0.96835       -1.32350
H         -8.65791        0.80152       -1.12537
H         -7.40315        2.05028       -1.21700
H         -7.38772        0.70082       -2.37056
C         -7.06069        0.07422        0.97670
H         -7.97756        0.54130        1.34663
H         -2.65162       -0.41026        1.96856
H         -0.94788        0.04746        1.81031
C         -2.30283        1.58044        1.20420
C         -1.28824        2.54342        1.22455
H         -0.25176        2.21861        1.32398
C         -3.62858        2.01132        1.07390
H         -4.43412        1.27548        1.07539
C         -1.59763        3.89804        1.12097
H         -0.79462        4.63872        1.15416
C         -3.95464        3.36437        0.94630
C         -5.38363        3.78716        0.75898
H         -6.07754        3.00495        1.09874
H         -5.60863        4.71443        1.30686
H         -5.59914        3.97985       -0.30590
C         -2.92038        4.30872        0.97668
H         -3.15681        5.37323        0.89212
C          2.67234        0.77341        2.05864
H          3.57091        0.80029        1.42329
C          2.93125       -0.05831        3.30141
H          3.18791       -1.09804        3.05441
H          2.02824       -0.08539        3.92966
H          3.75484        0.37067        3.89257
C          2.29007        2.19841        2.39557
H          2.11823        2.78304        1.48272
H          1.37742        2.21839        3.01063
H          3.09874        2.67927        2.96645
H          3.41275       -2.11134        1.17762
H          3.16932       -2.60169       -0.48351
C          4.67053       -1.09421       -0.26787
C          5.05312       -1.10622       -1.61551
H          4.42130       -1.60923       -2.35239
C          5.53522       -0.49716        0.65798
H          5.28004       -0.52622        1.72045
C          6.23467       -0.49122       -2.02246
H          6.51839       -0.50510       -3.07746
C          6.71961        0.13432        0.26879
C          7.59273        0.81809        1.28018
H          8.65934        0.70491        1.03699
H          7.37812        1.89955        1.31081
H          7.42638        0.42105        2.29163
C          7.05623        0.13791       -1.09092
H          7.98059        0.62208       -1.41758
H          2.55673       -0.22063       -2.15112
H          0.86183        0.24385       -1.88534
C          2.26800        1.70073       -1.19599
C          1.27147        2.67799       -1.11189
H          0.22768        2.38329       -1.22364
C          3.60338        2.09234       -1.04280
H          4.39478        1.34567       -1.12155
C          1.60813        4.01106       -0.88610
H          0.81869        4.76515       -0.83703
C          3.95669        3.42153       -0.79404
C          5.39501        3.80111       -0.58723
H          6.07101        3.02313       -0.96971
H          5.63998        4.75106       -1.08568
H          5.61534        3.93307        0.48574
C          2.93994        4.38252       -0.72260
H          3.19726        5.42992       -0.54112
