74
Cat256.ts34.5.log	Energy: -1202361.0520124
C         -0.94979       -3.20440       -0.99591
H         -0.81664       -4.09190       -0.37048
H         -1.97662       -3.08255       -1.35870
C          0.12260       -2.88560       -1.91356
H          1.05334       -3.45903       -1.87111
H         -0.14544       -2.62539       -2.94546
H          0.26278       -1.33246       -1.79299
Ir         0.03414       -1.50466       -0.12993
C         -1.50652        1.41036       -1.40753
C         -3.38348       -0.65020       -0.74442
C         -2.12197        0.86147        1.36765
C          1.44820        1.31752        1.43736
C          3.36063       -0.67550        0.72623
C          2.17119        0.96855       -1.35866
P          1.75013        0.02827        0.16552
P         -1.73945        0.02135       -0.22787
C          0.32438       -2.28149        1.56161
O          0.51275       -2.71463        2.62213
C         -1.27175        2.73174       -1.00704
C         -1.41529        1.10549       -2.77512
C         -0.85825        3.39789       -3.29650
C         -1.10444        2.08651       -3.71015
C         -0.94288        3.71418       -1.94306
H         -1.32248        3.00358        0.04779
H         -0.75446        4.73711       -1.60658
H         -0.60134        4.16739       -4.02820
H         -1.03947        1.82539       -4.76932
H         -1.56103        0.07348       -3.10704
H         -4.09399        0.17846       -0.90043
H         -3.22903       -1.12410       -1.72860
C         -3.92916       -1.67303        0.24522
H         -4.19970       -1.16512        1.18625
H         -3.12471       -2.37973        0.50862
C         -5.13662       -2.42632       -0.29021
H         -5.95947       -1.73984       -0.54707
H         -4.88045       -2.98990       -1.20195
H         -5.52065       -3.14674        0.44796
H         -2.13915        0.05117        2.11478
H         -1.22508        1.45018        1.61968
C         -3.38142        1.71471        1.46026
H         -4.27240        1.07210        1.36803
H         -3.43180        2.41409        0.60956
C         -3.44705        2.49189        2.76699
H         -3.42399        1.81332        3.63466
H         -2.58637        3.17321        2.86521
H         -4.36569        3.09443        2.83629
C          1.25744        0.90079        2.76421
C          1.28613        2.67391        1.13236
C          0.74949        3.16512        3.43880
C          0.93457        3.58961        2.12531
C          0.91787        1.81609        3.75551
H          1.34045       -0.15784        3.02247
H          0.76859        1.47059        4.78118
H          0.47273        3.88213        4.21529
H          0.80496        4.64344        1.86589
H          1.41000        3.02743        0.10820
H          4.09006        0.14040        0.86379
H          3.16809       -1.10656        1.72281
C          3.88682       -1.75355       -0.21027
H          4.09767       -1.31501       -1.20154
H          3.08077       -2.49020       -0.36965
C          5.13507       -2.43995        0.32109
H          5.95758       -1.72267        0.47392
H          4.93651       -2.92629        1.28939
H          5.49338       -3.21499       -0.37351
H          2.19928        0.21091       -2.15839
H          1.28261        1.58207       -1.58558
C          3.44640        1.80231       -1.36520
H          4.32184        1.13411       -1.31117
H          3.49827        2.43230       -0.46196
C          3.54706        2.67701       -2.60618
H          3.52649        2.06864       -3.52444
H          2.70085        3.38062       -2.66388
H          4.47747        3.26489       -2.61398
