54
Cat237.ts34.5.log	Energy: -1193890.7894598
C          0.44336       -3.26712       -0.74843
H         -0.35125       -3.84474       -1.22781
H          1.35674       -3.16872       -1.34078
C          0.54761       -3.34830        0.67946
H         -0.20536       -3.90064        1.24822
H          1.54589       -3.41070        1.12556
H          0.69278       -1.81126        1.21450
Ir        -0.34374       -1.37714       -0.03361
C          2.51267        0.78992       -0.07321
O          2.24664       -1.00892       -2.05345
O          0.81347        1.14411       -1.99417
C         -1.95270        1.71939        0.31926
O         -2.46263       -0.01608        2.20553
O         -0.17026        1.19901        2.12978
P         -1.20672        0.33005        1.21024
P          1.27590       -0.12705       -1.05637
C         -2.00974       -1.67422       -0.89660
O         -3.01506       -1.85650       -1.43807
C          2.50800        2.18161        0.04775
C          3.44269        0.03871        0.65711
C          4.33847        2.06106        1.62367
C          4.35696        0.67070        1.49456
C          3.41399        2.81295        0.90007
H          1.79172        2.76048       -0.53750
H          3.40151        3.90165        0.99494
H          5.04905        2.55834        2.28835
H          5.08459        0.07803        2.05443
H          3.44408       -1.05173        0.56490
C          3.25664       -0.39056       -2.82261
H          2.84823        0.43190       -3.43106
H          4.06014        0.01266       -2.18345
H          3.67751       -1.15780       -3.48695
C         -0.36309        1.10603       -2.77387
H         -0.13684        0.75979       -3.79535
H         -1.11302        0.43491       -2.32554
H         -0.77345        2.12453       -2.81347
C         -3.19354        1.53724       -0.30182
C         -1.26838        2.92736        0.16014
C         -3.04722        3.75313       -1.25198
C         -1.81617        3.94032       -0.62506
C         -3.73666        2.55139       -1.08561
H         -3.73490        0.59747       -0.17339
H         -4.70562        2.40327       -1.56804
H         -3.47431        4.54768       -1.86876
H         -1.27856        4.88419       -0.74451
H         -0.31002        3.06662        0.66185
C         -2.59668       -1.27880        2.81860
H         -2.17584       -2.07245        2.17616
H         -2.08655       -1.29622        3.79629
H         -3.66859       -1.46374        2.97485
C          0.81847        0.61819        2.94504
H          0.42071        0.42671        3.95541
H          1.18916       -0.32698        2.51439
H          1.65739        1.32470        3.01070
