90
Cat254.ts34.5.log	Energy: -1584672.5118504
C          0.90690       -2.89913       -1.55046
H          0.80579       -3.07314       -2.62557
H          1.92794       -3.04941       -1.18250
C         -0.18892       -3.31104       -0.71227
H         -1.11201       -3.67898       -1.16739
H          0.03499       -3.82496        0.23042
H         -0.38617       -2.11203        0.28973
Ir        -0.09285       -1.07520       -1.00063
C          1.19631        0.03845        2.08819
C          3.22251       -1.09719        0.43259
C          2.19693        1.55064       -0.14602
C         -1.89768        1.91515       -0.19079
C         -3.38698       -0.07075       -1.59170
C         -2.77865       -0.39903        1.25658
P         -1.98881        0.08541       -0.35570
P          1.62321       -0.16196        0.31448
C         -0.17737       -0.39415       -2.75748
O         -0.23020        0.04288       -3.83061
C          0.29505        1.05036        2.45501
C          1.64437       -0.84243        3.08053
C          0.31656        0.29820        4.75248
C          1.20618       -0.71388        4.39925
C         -0.13610        1.18288        3.77141
H         -0.08381        1.74455        1.70081
H         -0.83333        1.98362        4.03108
H         -0.02371        0.39813        5.78555
H          1.56835       -1.41279        5.15735
H          2.33830       -1.64744        2.83293
H          2.94341       -2.14819        0.62692
H          3.76801       -0.73756        1.31851
C          4.13378       -1.01470       -0.76520
C          5.51936       -1.02300       -0.55815
H          5.90563       -1.07832        0.46316
C          3.66074       -0.91680       -2.07919
H          2.58371       -0.90943       -2.26241
C          6.40715       -0.93136       -1.62596
H          7.48355       -0.93400       -1.43719
C          4.54838       -0.81516       -3.15001
H          4.15484       -0.73004       -4.16594
C          5.92412       -0.82108       -2.92978
H          6.61803       -0.74007       -3.76993
H          1.34208        2.21066        0.06536
H          2.30620        1.52861       -1.23999
C          3.45610        2.03950        0.50606
C          4.64632        2.10904       -0.22930
H          4.64395        1.81226       -1.28112
C          3.48564        2.42516        1.85443
H          2.56904        2.39247        2.44609
C          5.83222        2.53651        0.36359
H          6.74758        2.57684       -0.23179
C          4.67136        2.84991        2.44901
H          4.67111        3.14542        3.50117
C          5.85135        2.90414        1.70742
H          6.78088        3.23813        2.17485
C         -1.04431        2.60545       -1.06113
C         -2.65872        2.64706        0.72981
C         -1.69584        4.71246       -0.07653
C         -2.55003        4.03518        0.79211
C         -0.94870        3.99468       -1.01001
H         -0.44341        2.04002       -1.77746
H         -0.27758        4.51699       -1.69599
H         -1.61278        5.80075       -0.02687
H         -3.14662        4.59153        1.51903
H         -3.35388        2.14132        1.40171
H         -3.59121       -1.15002       -1.65739
H         -2.92999        0.22033       -2.54960
C         -4.61660        0.72893       -1.30243
C         -4.70504        2.06862       -1.70707
H         -3.87982        2.51250       -2.26944
C         -5.69002        0.18348       -0.58505
H         -5.65703       -0.86553       -0.27897
C         -5.82136        2.83889       -1.39466
H         -5.86665        3.88079       -1.72060
C         -6.80806        0.95315       -0.26770
H         -7.63383        0.50467        0.28995
C         -6.87575        2.28626       -0.66816
H         -7.75186        2.89086       -0.42212
H         -3.82892       -0.06765        1.23430
H         -2.25604        0.18742        2.02531
C         -2.66885       -1.85583        1.58168
C         -1.71133       -2.29043        2.50631
H         -1.07282       -1.55526        3.00038
C         -3.47292       -2.81522        0.95548
H         -4.22714       -2.50092        0.23036
C         -1.55976       -3.64506        2.79460
H         -0.80620       -3.96006        3.52073
C         -3.32212       -4.17086        1.23996
H         -3.95925       -4.90368        0.73897
C         -2.36291       -4.59172        2.16019
H         -2.24432       -5.65467        2.38318
