110
Cat284.ts34.5.log	Energy: -1826906.0080292
C          0.53289       -2.32121       -2.99939
H          0.26355       -2.14208       -4.04422
H          1.59446       -2.53867       -2.84586
C         -0.41242       -3.04771       -2.18968
H         -1.39137       -3.30932       -2.60164
H         -0.02486       -3.82002       -1.51406
H         -0.42037       -2.24206       -0.80612
Ir        -0.37377       -0.84895       -1.71823
C          2.76539       -1.53273       -0.25955
C          2.54060        1.01847       -1.70043
C          1.29719        0.65883        0.99664
C         -2.07061        1.78684       -0.01456
C         -3.68491       -0.32516       -1.19453
C         -2.25290       -0.60557        1.43383
P         -2.05043       -0.02848       -0.33607
P          1.59343       -0.17846       -0.62758
C         -0.89330        0.23850       -3.17468
O         -1.21842        0.89554       -4.07337
C          3.55724       -2.09543       -1.27615
H          3.58266       -1.63736       -2.26735
C          2.76871       -2.17407        0.98471
H          2.18413       -1.77069        1.81397
C          4.32068       -3.23199       -1.05577
H          4.93888       -3.66095       -1.84658
C          3.52482       -3.32119        1.22023
H          3.49996       -3.77532        2.21115
C          4.31010       -3.86158        0.19573
O          5.07778       -4.96176        0.32114
C          5.10052       -5.63025        1.55055
H          4.09982       -6.00109        1.83553
H          5.77489       -6.48761        1.43095
H          5.48321       -4.98629        2.36219
H          2.78083        0.42109       -2.59372
H          1.76330        1.71912       -2.03423
C          3.75270        1.73134       -1.17986
C          5.00317        1.10316       -1.21345
H          5.08231        0.09768       -1.63141
C          3.65772        3.03797       -0.65593
C          2.35410        3.78095       -0.63791
H          1.56340        3.22093       -0.12043
H          1.98930        3.98044       -1.65981
H          2.46119        4.74639       -0.12437
C          6.14283        1.72578       -0.71320
H          7.10533        1.20977       -0.74707
C          4.81080        3.64894       -0.15610
H          4.73273        4.65506        0.26430
C          6.04504        3.00520       -0.17394
H          6.92833        3.50583        0.22962
H          0.49906        1.37125        0.74094
H          0.77282       -0.10787        1.59612
C          2.34655        1.34078        1.83883
C          3.67919        0.92025        1.87008
H          3.99342        0.08876        1.24133
C          1.95379        2.42767        2.65133
C          0.52829        2.89873        2.69678
H         -0.15911        2.09876        3.01579
H          0.16564        3.24152        1.71419
H          0.41243        3.73533        3.39928
C          4.62444        1.56241        2.66386
H          5.66114        1.21961        2.65124
C          2.91846        3.06668        3.43770
H          2.61283        3.91238        4.06039
C          4.24548        2.64658        3.44881
H          4.97910        3.16609        4.07003
C         -2.78543        2.38799        1.03794
H         -3.38282        1.78406        1.72179
C         -1.33607        2.62528       -0.85679
H         -0.75508        2.17766       -1.66588
C         -2.76153        3.75980        1.23317
H         -3.31116        4.22456        2.05376
C         -1.30626        4.00773       -0.67864
H         -0.71338        4.61700       -1.36066
C         -2.01898        4.58634        0.37690
O         -2.04026        5.90242        0.64921
C         -1.28587        6.76961       -0.15314
H         -1.62081        6.75103       -1.20486
H         -1.43487        7.77930        0.24927
H         -0.20951        6.52520       -0.11848
H         -3.59339        0.33218       -2.07414
H         -3.59261       -1.34880       -1.57850
C         -4.98311       -0.10137       -0.48709
C         -5.45604        1.20219       -0.28432
H         -4.86825        2.04176       -0.66149
C         -5.76667       -1.19187       -0.05162
C         -5.34180       -2.61177       -0.30017
H         -4.33501       -2.82437        0.09159
H         -5.32205       -2.83951       -1.37858
H         -6.03801       -3.31686        0.17442
C         -6.65827        1.44417        0.37347
H         -7.00175        2.47063        0.52235
C         -6.97865       -0.93010        0.59915
H         -7.58759       -1.77391        0.93558
C         -7.42219        0.37027        0.82442
H         -8.37076        0.54260        1.33851
H         -1.51618        0.01288        1.97277
H         -3.24287       -0.25533        1.75413
C         -2.06561       -2.04970        1.80861
C         -0.83819       -2.68066        1.56904
H         -0.04126       -2.11280        1.09073
C         -3.06991       -2.76562        2.49701
C         -4.33818       -2.11401        2.96991
H         -4.86085       -1.55332        2.18372
H         -4.12841       -1.40133        3.78519
H         -5.03820       -2.86374        3.36376
C         -0.61349       -4.01033        1.91014
H          0.35673       -4.46599        1.69663
C         -2.83392       -4.10807        2.82208
H         -3.61794       -4.66481        3.34282
C         -1.62982       -4.73836        2.52244
H         -1.48035       -5.78733        2.78934
