90
Cat280.ts34.5.log	Energy: -2067426.8877260
C          1.17303        0.13649        3.67569
H          0.80917       -0.53216        4.46010
H          2.25672        0.08893        3.53084
C          0.51037        1.41014        3.53830
H         -0.38870        1.61545        4.12512
H          1.12926        2.30623        3.40061
H          0.34458        1.57922        1.99702
Ir        -0.04803       -0.05470        1.90868
C          2.94344        0.55532       -0.10558
O          2.56835       -1.81422        1.12595
O          1.26242       -1.20409       -1.01742
C         -2.99187       -0.42047       -0.22306
O         -2.58355        1.86397        1.20690
O         -1.24196        1.34539       -0.91390
P         -1.70701        0.61351        0.51202
P          1.64745       -0.56358        0.47966
C         -0.84873       -1.65060        2.55953
O         -1.25657       -2.65396        2.95972
C          3.28827        1.63719        0.71564
H          2.71475        1.82207        1.62718
C          3.66807        0.34756       -1.28248
H          3.40667       -0.48808       -1.93383
C          4.33718        2.47815        0.38230
H          4.60897        3.33041        1.00698
C          4.71272        1.19510       -1.63784
H          5.25709        1.00902       -2.56378
C          5.05690        2.26709       -0.80206
O          6.04836        3.13584       -1.05544
C          6.76496        3.01965       -2.25370
H          6.10634        3.12599       -3.13331
H          7.49974        3.83428       -2.26009
H          7.29960        2.05606       -2.32141
C          3.72039       -2.25805        0.53271
C          3.67022       -3.19809       -0.49774
H          2.70423       -3.57835       -0.83329
C          4.94923       -1.76534        0.97440
H          4.96455       -1.02405        1.77497
C          4.85007       -3.64005       -1.09188
H          4.83940       -4.37510       -1.89867
C          6.13033       -2.20433        0.38507
H          7.10281       -1.83079        0.71031
C          6.06502       -3.13463       -0.64570
F          7.19494       -3.55286       -1.21834
C          0.21347       -2.05981       -1.20244
C         -0.06674       -3.09765       -0.30864
H          0.55728       -3.23888        0.57441
C         -0.58102       -1.87944       -2.33473
H         -0.35211       -1.05949       -3.01607
C         -1.15390       -3.93641       -0.53893
H         -1.40339       -4.73658        0.15968
C         -1.65979       -2.72422       -2.57502
H         -2.30393       -2.59174       -3.44516
C         -1.93762       -3.73628       -1.66646
F         -2.99287       -4.53206       -1.87942
C         -3.59071       -0.09093       -1.45207
H         -3.24618        0.78591       -2.00095
C         -3.44943       -1.54587        0.46298
H         -3.00988       -1.82171        1.42131
C         -4.59902       -0.87756       -1.97681
H         -5.06548       -0.63827       -2.93419
C         -4.46449       -2.34504       -0.05691
H         -4.77988       -3.22877        0.49665
C         -5.03614       -2.02334       -1.29234
O         -5.98966       -2.74771       -1.89644
C         -6.37525       -3.96938       -1.32237
H         -6.84880       -3.82633       -0.33542
H         -7.10881       -4.41719       -2.00421
H         -5.51373       -4.64938       -1.21749
C         -3.71771        2.36700        0.61969
C         -3.63235        3.36289       -0.35375
H         -2.65495        3.74096       -0.65677
C         -4.96204        1.87370        1.01393
H         -5.00337        1.08892        1.77075
C         -4.79394        3.86345       -0.93735
H         -4.75612        4.64265       -1.70065
C         -6.12467        2.37011        0.43380
H         -7.10927        1.99734        0.72104
C         -6.02529        3.35827       -0.53885
F         -7.13706        3.83364       -1.10041
C         -0.19286        2.20655       -1.04250
C          0.04636        3.24164       -0.13275
H         -0.61459        3.37215        0.72529
C          0.63492        2.04799       -2.15383
H          0.43381        1.23060       -2.84634
C          1.12828        4.09694       -0.32764
H          1.34510        4.90406        0.37423
C          1.70910        2.90689       -2.35534
H          2.37844        2.78938       -3.20835
C          1.95114        3.91403       -1.43107
F          3.00325        4.71650       -1.60297
