82
Cat285.ts34.5.log	Energy: -1345996.7591451
C         -3.50658       -0.08167       -1.65766
H         -4.43412        0.24962       -1.18169
H         -3.31518        0.41053       -2.61789
C         -3.18772       -1.48990       -1.55672
H         -3.80653       -2.13570       -0.92670
H         -2.85945       -2.00814       -2.46673
H         -1.65217       -1.50171       -1.26066
Ir        -1.90623       -0.18904       -0.23080
C          1.14977        0.08099       -1.98248
C         -0.85782        1.88406       -2.96204
C          0.44961        2.43242       -0.44691
C          0.76671       -0.07276        2.04702
C         -1.22701       -2.00638        2.72845
C          0.57770       -2.52806        0.50617
P         -0.44608       -1.20129        1.26441
P         -0.29907        1.04951       -1.40944
C         -2.79164        0.74163        1.14600
O         -3.28820        1.32175        2.02163
C          0.92486       -0.98123       -2.87804
H         -0.07648       -1.13344       -3.29115
C          2.43332        0.21323       -1.45068
H          2.65707        1.01352       -0.74494
C          1.92963       -1.87082       -3.21475
H          1.75083       -2.69930       -3.90278
C          3.45556       -0.68853       -1.76400
H          4.43775       -0.55394       -1.30954
C          3.20664       -1.74368       -2.64428
O          4.11226       -2.67998       -2.99261
C          5.39204       -2.61828       -2.43005
H          5.36057       -2.70445       -1.32894
H          5.95661       -3.46748       -2.83535
H          5.91472       -1.68264       -2.69676
H          0.01247        2.30622       -3.49160
H         -1.26677        1.08965       -3.60943
C         -1.92106        2.94495       -2.70263
H         -1.46636        3.79633       -2.16848
H         -2.67749        2.53173       -2.01486
C         -2.58491        3.44145       -3.97736
H         -1.84839        3.87169       -4.67511
H         -3.09680        2.61965       -4.50381
H         -3.33607        4.21721       -3.76410
H         -0.40699        2.94156        0.02423
H          0.98201        1.95456        0.39010
C          1.35044        3.43449       -1.15879
H          0.75936        4.01858       -1.88329
H          2.11315        2.90855       -1.75607
C          2.03038        4.37907       -0.17684
H          1.28587        4.93900        0.41229
H          2.66147        3.82566        0.53768
H          2.66865        5.11273       -0.69284
C          2.14503       -0.11947        1.79356
H          2.56921       -0.92690        1.19605
C          0.28025        0.99698        2.80856
H         -0.79148        1.08796        3.00215
C          2.99511        0.87873        2.25175
H          4.06553        0.85428        2.03767
C          1.12157        1.99929        3.28442
H          0.69455        2.82255        3.85721
C          2.48964        1.95691        2.98777
O          3.37805        2.90345        3.34958
C          2.91702        4.03012        4.04335
H          2.47035        3.75960        5.01609
H          3.79092        4.66955        4.22040
H          2.17356        4.59556        3.45433
H         -0.44027       -2.42448        3.37889
H         -1.71206       -1.19237        3.29294
C         -2.25984       -3.05520        2.34241
H         -1.76676       -3.87967        1.79783
H         -2.96175       -2.59536        1.62563
C         -3.01343       -3.61209        3.53975
H         -2.33072       -4.08827        4.26200
H         -3.55336       -2.81332        4.07277
H         -3.75360       -4.36691        3.23310
H         -0.12856       -3.12085       -0.09710
H          1.21782       -2.01881       -0.23348
C          1.39422       -3.43370        1.41926
H          0.71485       -4.06029        2.02082
H          1.96459       -2.83333        2.14700
C          2.34445       -4.32222        0.62931
H          1.79462       -4.96123       -0.07978
H          3.05031       -3.71860        0.03549
H          2.93061       -4.97977        1.28922
