114
Cat231.ts34.5.log	Energy: -1687822.5300990
C         -1.14533        2.53289       -2.27353
H         -0.77627        2.65316       -3.29581
H         -2.23874        2.50147       -2.21043
C         -0.42185        3.22169       -1.23358
H          0.49602        3.76157       -1.48089
H         -0.99599        3.74405       -0.45732
H         -0.22653        2.19342       -0.09609
Ir         0.00083        1.00289       -1.27818
C         -3.01639        0.56303        0.78959
C         -2.86827       -0.68035       -1.93710
C         -1.55793       -1.89092        0.27922
C          2.26174       -1.38353        0.20283
C          3.43947        0.91206       -1.32500
C          2.37838        1.21932        1.39374
P          2.00039        0.40403       -0.23935
P         -1.83579       -0.20788       -0.44278
C          0.57446        0.20796       -2.87891
O          0.92600       -0.29441       -3.86449
H         -2.33160        0.92396        1.57829
C         -4.02508       -0.37259        1.46074
H         -3.49685       -1.19793        1.96184
H         -4.68123       -0.82828        0.70315
C         -4.87906        0.37318        2.48251
H         -5.62190       -0.31351        2.92002
H         -4.23692        0.70921        3.31750
C         -5.56639        1.58442        1.86494
H         -6.17003        2.11453        2.61951
H         -6.27064        1.24290        1.08399
C         -4.54425        2.52664        1.24185
H         -3.89401        2.92972        2.03935
H         -5.04314        3.39421        0.77964
C         -3.67984        1.81277        0.20736
H         -4.30992        1.53612       -0.65307
H         -2.90709        2.49500       -0.17634
H         -3.02540        0.26769       -2.47132
H         -2.15051       -1.24980       -2.54921
C         -4.15461       -1.42873       -1.77112
C         -4.17216       -2.81859       -1.58473
H         -3.23657       -3.38140       -1.62427
C         -5.38047       -0.75437       -1.79052
H         -5.38800        0.32288       -1.98019
C         -5.37300       -3.48744       -1.36692
H         -5.37220       -4.57059       -1.22137
C         -6.59731       -1.40659       -1.56784
C         -7.88139       -0.62874       -1.54954
H         -8.75734       -1.29191       -1.57437
H         -7.95555       -0.01328       -0.63736
H         -7.94742        0.05737       -2.40760
C         -6.57755       -2.78674       -1.34312
H         -7.51601       -3.31921       -1.16694
H         -2.52099       -2.42545        0.30612
H         -0.93593       -2.41184       -0.46968
C         -0.90406       -2.00673        1.63093
C         -0.43606       -0.90970        2.35851
H         -0.51933        0.09003        1.92962
C         -0.72911       -3.28485        2.17815
H         -1.09330       -4.15193        1.61776
C          0.18606       -1.09252        3.59311
H          0.54401       -0.22439        4.15339
C         -0.09371       -3.49094        3.40479
C          0.13406       -4.87822        3.93078
H         -0.59350       -5.59203        3.51903
H          1.14002       -5.23837        3.65597
H          0.06575       -4.91111        5.02796
C          0.36051       -2.37052        4.11301
H          0.85474       -2.50532        5.07891
H          1.35301       -1.56948        0.79953
C          3.45360       -1.75208        1.09113
H          3.46535       -1.13225        1.99999
H          4.40121       -1.55999        0.56595
C          3.38499       -3.22527        1.48727
H          4.25879       -3.48603        2.10670
H          2.49101       -3.38609        2.11638
C          3.30914       -4.13148        0.26421
H          3.24278       -5.18872        0.56983
H          4.24418       -4.03328       -0.31793
C          2.12684       -3.75835       -0.62223
H          1.18959       -3.95079       -0.06885
H          2.09805       -4.39584       -1.52104
C          2.16966       -2.28808       -1.02642
H          3.03869       -2.11882       -1.68391
H          1.27786       -2.02411       -1.61523
H          3.16634        0.54449       -2.32461
H          3.34676        2.00833       -1.37492
C          4.82627        0.47659       -0.96551
C          5.57552        1.11910        0.02978
H          5.18055        2.00986        0.52311
C          5.40186       -0.62094       -1.61575
H          4.84341       -1.10713       -2.42123
C          6.82960        0.63576        0.39206
H          7.40175        1.14423        1.17202
C          6.65645       -1.12635       -1.26195
C          7.20590       -2.34183       -1.95073
H          6.68964       -3.25377       -1.60671
H          7.06580       -2.28375       -3.04063
H          8.27843       -2.47203       -1.74932
C          7.36253       -0.48750       -0.23720
H          8.34580       -0.86370        0.05770
H          1.89245        0.58320        2.14678
H          3.46246        1.14575        1.56347
C          1.89283        2.62848        1.51419
C          2.59456        3.70113        0.95442
H          3.54848        3.52760        0.45114
C          0.67892        2.89650        2.15864
H          0.12561        2.06819        2.60948
C          2.08489        4.99571        1.03358
H          2.64460        5.82580        0.59562
C          0.14582        4.18537        2.23990
C         -1.18573        4.42620        2.88999
H         -1.47128        3.59251        3.54734
H         -1.18511        5.35032        3.48692
H         -1.97938        4.53150        2.13111
C          0.86869        5.23800        1.66611
H          0.47514        6.25685        1.71925
