106
Cat229.ts34.5.log	Energy: -1777872.4435483
C         -0.94734       -0.85599       -3.12424
H         -0.72859       -1.83854       -3.55121
H         -2.00150       -0.56376       -3.18239
C          0.05491        0.16117       -3.27061
H          1.01179       -0.07543       -3.74616
H         -0.28635        1.17764       -3.50416
H          0.30212        0.79381       -1.85917
Ir        -0.01836       -0.71504       -1.17764
C         -1.77942        2.05070        0.42555
C         -3.42716        0.02636       -1.01983
C         -2.26895       -0.55247        1.56646
C          2.54328       -1.64667        1.18804
C          3.43422       -0.08626       -1.03540
C          1.80551        1.17117        1.08792
P          1.93533       -0.31681        0.02095
P         -1.87914        0.24342       -0.05528
C         -0.17875       -2.54670       -0.80068
O         -0.34725       -3.66588       -0.54452
H         -0.93102        2.01443        1.13543
C         -2.97956        2.62546        1.18152
H         -3.15817        2.02987        2.08730
H         -3.89448        2.53513        0.57469
C         -2.76505        4.08753        1.56034
H         -3.66046        4.47389        2.07472
H         -1.93210        4.15767        2.28358
C         -2.43437        4.93650        0.34085
H         -2.29344        5.99190        0.62664
H         -3.28634        4.91473       -0.36380
C         -1.18521        4.40085       -0.34497
H         -0.33711        4.49840        0.35203
H         -0.93715        5.00428       -1.23461
C         -1.32807        2.93536       -0.74472
H         -2.03632        2.86683       -1.58587
H         -0.37087        2.54945       -1.12608
C         -4.08654        1.05337       -1.69482
H         -3.74597        2.08052       -1.57664
C         -3.90817       -1.29212       -1.20012
O         -3.24737       -2.25213       -0.53189
C         -3.60314       -3.59550       -0.69074
H         -4.62275       -3.79277       -0.31477
H         -2.87691       -4.17488       -0.10901
H         -3.54136       -3.90897       -1.74723
C         -5.18855        0.80826       -2.51821
H         -5.67988        1.63872       -3.02967
C         -5.01049       -1.54476       -2.01940
H         -5.37612       -2.56369       -2.14864
C         -5.64955       -0.49211       -2.67665
H         -6.50983       -0.70155       -3.31697
C         -1.23037       -1.21257        2.21912
H         -0.26994       -1.24317        1.70278
C         -3.54622       -0.57502        2.16971
O         -4.54776        0.03587        1.51101
C         -5.85886       -0.05170        1.98327
H         -6.19121       -1.10060        2.07499
H         -6.48782        0.45632        1.24100
H         -5.98118        0.44769        2.96107
C         -1.40220       -1.84680        3.44834
H         -0.56157       -2.35317        3.92812
C         -3.73302       -1.22152        3.39730
H         -4.71883       -1.24052        3.86259
C         -2.66198       -1.84632        4.03522
H         -2.82778       -2.34505        4.99349
H          1.66066       -1.87671        1.81339
C          3.71061       -1.27748        2.10465
H          3.52030       -0.33966        2.64443
H          4.60242       -1.09644        1.48254
C          3.99943       -2.41186        3.08478
H          4.84274       -2.13711        3.73975
H          3.12504       -2.54785        3.74791
C          4.29281       -3.72058        2.36013
H          4.44298       -4.53851        3.08385
H          5.24362       -3.61613        1.80652
C          3.18371       -4.07191        1.37527
H          2.25824       -4.31560        1.92774
H          3.44818       -4.97684        0.80463
C          2.89802       -2.92111        0.41603
H          3.79336       -2.72235       -0.19815
H          2.09692       -3.19729       -0.28067
C          3.42618       -0.74533       -2.26463
H          2.51917       -1.30414       -2.52058
C          4.58754        0.64275       -0.67553
O          4.57639        1.25382        0.52494
C          5.66528        2.02900        0.92880
H          6.58583        1.42692        1.02879
H          5.40102        2.44531        1.90935
H          5.86074        2.86059        0.22855
C          4.51661       -0.69816       -3.13398
H          4.48214       -1.23032       -4.08680
C          5.67706        0.70970       -1.55033
H          6.56653        1.27937       -1.27988
C          5.63792        0.03891       -2.77318
H          6.50023        0.09837       -3.44211
C          1.42348        1.06921        2.42641
H          1.25293        0.08599        2.86636
C          1.96907        2.46038        0.54153
O          2.24460        2.51141       -0.77635
C          2.55672        3.73382       -1.37819
H          1.70530        4.43556       -1.34892
H          2.80093        3.51041       -2.42437
H          3.43053        4.21081       -0.90010
C          1.24574        2.19949        3.22638
H          0.93963        2.08544        4.26804
C          1.84069        3.59356        1.34725
H          2.00701        4.58728        0.93072
C          1.47516        3.45988        2.68802
H          1.36130        4.35455        3.30474
