90
Cat214.ts34.5.log	Energy: -1739587.9527046
C         -0.76326        0.53587       -3.46638
H         -0.59948       -0.20517       -4.25448
H         -1.76246        0.98439       -3.49418
C          0.33983        1.43037       -3.17140
H          1.31590        1.25457       -3.63441
H          0.11286        2.50451       -3.11077
H          0.29037        1.53643       -1.67234
Ir         0.02935       -0.12897       -1.58445
C         -2.21851        1.72193        0.57969
C         -3.39502       -0.65146       -0.67467
C         -1.52187       -0.99879        1.38458
C          2.12049       -1.36323        1.19670
C          3.38933        0.31475       -0.80096
C          1.54197        1.48727        1.04194
P          1.75745       -0.00120       -0.01762
P         -1.78644        0.04254       -0.10590
C          0.19916       -1.92822       -2.12906
O          0.23214       -3.03547       -2.46820
H         -1.31467        1.97644        1.16608
C         -3.44712        1.83348        1.48144
H         -3.41160        1.10371        2.30445
H         -4.34630        1.59020        0.89024
C         -3.58399        3.24887        2.03890
H         -4.47226        3.31345        2.68816
H         -2.71115        3.47424        2.67911
C         -3.66569        4.27866        0.91855
H         -3.72534        5.29755        1.33413
H         -4.59951        4.11820        0.34991
C         -2.47579        4.15747       -0.02570
H         -1.55465        4.43686        0.51621
H         -2.57339        4.86689       -0.86360
C         -2.31576        2.73790       -0.55984
H         -3.17858        2.47903       -1.20100
H         -1.41950        2.66330       -1.19355
C         -3.61360       -0.86046       -2.03989
H         -2.80805       -0.63183       -2.73880
C         -4.40582       -1.01457        0.22918
H         -4.24196       -0.90842        1.30331
C         -4.81883       -1.38185       -2.50544
H         -4.99689       -1.55175       -3.56876
C         -5.61293       -1.53989       -0.21871
H         -6.40460       -1.83072        0.47421
C         -5.80619       -1.70874       -1.58613
F         -6.95968       -2.21206       -2.01868
C         -1.42237       -2.38494        1.17464
H         -1.57123       -2.78661        0.16876
C         -1.31621       -0.50737        2.67706
H         -1.39109        0.56089        2.87934
C         -1.11466       -3.25112        2.21420
H         -1.03565       -4.32805        2.05592
C         -0.98356       -1.36413        3.72959
H         -0.80658       -0.98758        4.73897
C         -0.87965       -2.72430        3.48171
F         -0.53454       -3.54709        4.47139
H          1.22688       -1.37549        1.84715
C          3.37019       -1.14117        2.05055
H          3.33743       -0.16784        2.56370
H          4.25159       -1.11066        1.38782
C          3.55185       -2.26891        3.06238
H          4.45409       -2.08571        3.66817
H          2.69794       -2.27438        3.76454
C          3.63880       -3.61931        2.36293
H          3.74353       -4.43131        3.10041
H          4.55016       -3.64387        1.73845
C          2.41589       -3.85353        1.48601
H          1.52615       -3.94119        2.13310
H          2.50248       -4.80848        0.94326
C          2.18847       -2.71836        0.49154
H          3.00886       -2.70336       -0.24899
H          1.26221       -2.89539       -0.07018
C          4.38781        1.08619       -0.19043
H          4.20013        1.55559        0.77785
C          3.65133       -0.26342       -2.04903
H          2.85616       -0.83493       -2.53753
C          5.62065        1.27543       -0.80786
H          6.40500        1.88061       -0.34963
C          4.88528       -0.09555       -2.67130
H          5.10325       -0.54261       -3.64289
C          5.85403        0.67568       -2.04062
F          7.03113        0.85434       -2.63427
C          1.54851        2.74662        0.42074
H          1.80594        2.82362       -0.63870
C          1.22578        1.42402        2.40205
H          1.22151        0.46704        2.92280
C          1.21841        3.90007        1.11963
H          1.21615        4.88009        0.63933
C          0.87784        2.57178        3.11689
H          0.61340        2.52656        4.17503
C          0.86516        3.79386        2.46205
F          0.50321        4.88927        3.12568
