82
Cat265.ts34.5.log	Energy: -1345983.9789045
C          1.89333       -1.00712       -2.41026
H          1.53455       -1.29320       -3.40276
H          2.68166       -0.24595       -2.42712
C          1.99585       -2.04250       -1.41771
H          1.64573       -3.05214       -1.65029
H          2.88374       -2.03880       -0.77206
H          1.33236       -1.43325       -0.11796
Ir         0.19735       -0.69534       -1.10422
C          2.93063        1.03405        0.24592
C          1.50904        2.56018       -1.75285
C          0.47020        2.37641        0.99065
C         -2.73877       -0.23558        0.82918
C         -2.59876       -2.71684       -0.59777
C         -0.95887       -2.25190        1.91948
P         -1.49727       -1.48398        0.29957
P          1.21168        1.32224       -0.37017
C         -1.06289       -0.49463       -2.47958
O         -1.86209       -0.37735       -3.31617
C          4.08860        1.64727       -0.26124
H          4.02109        2.39465       -1.05213
C          3.11501        0.06563        1.24171
H          2.24414       -0.47110        1.62517
C          5.35280        1.32240        0.21244
H          6.24714        1.79880       -0.19378
C          4.37303       -0.26158        1.74248
H          4.45420       -1.02099        2.52070
C          5.51012        0.37054        1.22600
O          6.77188        0.12083        1.62780
C          6.98305       -0.82928        2.63333
H          6.63195       -1.83231        2.33217
H          8.06603       -0.87084        2.80572
H          6.48276       -0.54814        3.57708
H          2.38019        2.11902       -2.26708
C          0.37793        2.59507       -2.77393
H          0.63068        3.29805       -3.58426
H          0.20974        1.60510       -3.21429
H         -0.57412        2.92285       -2.33131
C          1.88043        3.96744       -1.29006
H          2.65983        3.97762       -0.51477
H          2.24978        4.55910       -2.14362
H          1.00597        4.49923       -0.88620
H          1.14606        3.23721        1.12475
C         -0.90680        2.86945        0.56142
H         -1.39732        3.40179        1.39178
H         -0.85608        3.55940       -0.29202
H         -1.55180        2.02717        0.27407
C          0.39882        1.61580        2.30612
H          1.39515        1.41370        2.72251
H         -0.16686        2.20012        3.04934
H         -0.12204        0.65660        2.16990
C         -2.90689        0.22025        2.14480
H         -2.32633       -0.21049        2.96153
C         -3.50901        0.37654       -0.16804
H         -3.38812        0.08079       -1.21259
C         -3.79943        1.23937        2.44939
H         -3.92108        1.59667        3.47369
C         -4.41578        1.39237        0.12236
H         -4.98820        1.83853       -0.69107
C         -4.56522        1.83649        1.44190
O         -5.40258        2.81949        1.82579
C         -6.17834        3.46176        0.85318
H         -6.86187        2.76044        0.34274
H         -6.77492        4.21986        1.37622
H         -5.55245        3.96214        0.09323
H         -2.79950       -2.14927       -1.52244
C         -1.81283       -3.95678       -1.00530
H         -2.37816       -4.53644       -1.75212
H         -0.84447       -3.67643       -1.44729
H         -1.63002       -4.62155       -0.14642
C         -3.94577       -3.06526        0.02529
H         -4.47534       -2.17693        0.39830
H         -4.58651       -3.53881       -0.73647
H         -3.85041       -3.77921        0.85407
H         -0.63555       -1.36147        2.48750
C         -2.06033       -2.95914        2.70497
H         -1.72900       -3.12829        3.74247
H         -3.00135       -2.39413        2.73885
H         -2.27595       -3.94633        2.27115
C          0.26154       -3.15634        1.79062
H          1.10436       -2.64005        1.31381
H          0.58246       -3.48700        2.79149
H          0.04455       -4.05635        1.19745
