62
Cat292.ts34.5.log	Energy: -1228251.0600738
C         -2.95822       -2.28040       -0.10162
H         -3.91478       -2.00804       -0.55632
H         -2.52273       -3.19285       -0.52121
C         -2.82976       -2.06671        1.32199
H         -3.63212       -1.55629        1.86245
H         -2.37724       -2.86616        1.92143
H         -1.40646       -1.42326        1.50172
Ir        -1.70070       -0.54828        0.08435
C          1.77472       -1.47250        0.05608
C          0.10916       -3.21928       -1.44234
C          0.75653       -0.59775       -2.47838
C          0.52836        2.13987        0.00336
C         -1.88776        2.71737        1.41409
C          0.11764        1.03555        2.65831
P         -0.73459        1.32139        1.05108
P          0.21774       -1.44223       -0.92783
C         -2.75632        0.55177       -1.01821
O         -3.35958        1.27197       -1.70106
C          3.01173       -1.00750       -0.40781
H          3.10738       -0.60201       -1.41562
C          1.70653       -1.97501        1.36376
H          0.74060       -2.31302        1.75037
C          4.14334       -1.03096        0.40650
H          5.10837       -0.66158        0.05401
C          2.82843       -2.02195        2.18479
H          2.78046       -2.41405        3.20245
C          4.03768       -1.54000        1.69381
F          5.11402       -1.56418        2.47720
H         -0.80274       -3.29473       -2.05714
C          1.31103       -3.81272       -2.15554
H          2.23009       -3.70219       -1.55938
H          1.48485       -3.33472       -3.13155
H         -0.11257       -3.77209       -0.51409
H          1.16257       -4.88769       -2.34341
H          1.65093       -1.10110       -2.87995
C         -0.33591       -0.53078       -3.53208
H         -1.22761       -0.01939       -3.14341
H         -0.64691       -1.53363       -3.86473
H          1.06141        0.41744       -2.17922
H          0.01609        0.01754       -4.41911
C          0.10574        2.78770       -1.16852
H         -0.95856        2.84750       -1.40904
C          1.90215        2.03152        0.24549
H          2.27054        1.50835        1.12932
C          1.02289        3.32804       -2.06300
H          0.70194        3.83122       -2.97678
C          2.83383        2.56168       -0.64619
H          3.90687        2.47535       -0.46576
C          2.38158        3.20711       -1.78841
F          3.26576        3.71610       -2.64392
H         -2.32426        3.00922        0.44601
C         -2.99071        2.32134        2.38152
H         -2.59445        2.07870        3.38011
H         -3.52468        1.43401        2.00710
H         -1.30626        3.57994        1.77789
H         -3.71756        3.13848        2.50311
H          0.93762        0.33278        2.44049
C          0.60203        2.25862        3.42042
H         -0.23715        2.88266        3.76163
H          1.25878        2.89496        2.80861
H         -0.60517        0.45451        3.25320
H          1.16981        1.95756        4.31434
