106
Cat264.ts34.5.log	Energy: -1543195.7043466
C          0.92635       -2.45613       -2.45038
H          1.03557       -3.52961       -2.27070
H          0.20611       -2.22289       -3.24281
C          2.12845       -1.65572       -2.38223
H          3.06276       -2.11619       -2.04784
H          2.30213       -0.91677       -3.17475
H          1.66979       -0.36789       -1.60367
Ir         0.77761       -1.37974       -0.59788
C         -0.86235        1.66115       -1.36271
C         -2.08045       -0.61147       -2.61223
C         -2.43872       -0.18017        0.21543
C          0.16853        0.22083        2.47605
C          2.78580       -0.87719        2.27204
C          2.08494        1.59137        0.86800
P          1.47360       -0.10994        1.22321
P         -1.14542       -0.12936       -1.09282
C          0.53540       -2.91674        0.46337
O          0.37775       -3.85026        1.13684
C         -0.11504        2.05311       -2.48874
H          0.19422        1.30054       -3.21978
C         -1.20094        2.64995       -0.43670
H         -1.76666        2.39310        0.46089
C          0.27158        3.36759       -2.68037
H          0.85665        3.66773       -3.55191
C         -0.80122        3.98012       -0.60521
H         -1.07467        4.71561        0.15197
C         -0.05714        4.34574       -1.72907
O          0.40761        5.58994       -1.97068
C          0.16109        6.59398       -1.02680
H          0.59766        6.34604       -0.04294
H          0.63657        7.50716       -1.40617
H         -0.91976        6.78066       -0.89905
H         -2.87740        0.12530       -2.80613
H         -1.37159       -0.54066       -3.45420
C         -2.63583       -2.02614       -2.51815
H         -1.84931       -2.69568       -2.12902
H         -3.44947       -2.05530       -1.77248
C         -3.15544       -2.55841       -3.84591
H         -2.33539       -2.54463       -4.58733
H         -3.92863       -1.87514       -4.24290
C         -3.72394       -3.96735       -3.75215
H         -2.94774       -4.64116       -3.34864
H         -4.54167       -3.97812       -3.00963
C         -4.23125       -4.50511       -5.08029
H         -4.63528       -5.52393       -4.97976
H         -3.42495       -4.54010       -5.83068
H         -5.03222       -3.86849       -5.48995
H         -2.53780       -1.24836        0.46771
H         -1.97129        0.26833        1.10448
C         -3.80200        0.44687       -0.03859
H         -3.68917        1.47679       -0.41773
H         -4.33677       -0.10630       -0.82963
C         -4.64354        0.46307        1.23193
H         -4.08502        0.99073        2.02597
H         -4.76203       -0.57383        1.59792
C         -6.01433        1.10361        1.07739
H         -5.89055        2.13566        0.70396
H         -6.58470        0.57016        0.29643
C         -6.80703        1.12076        2.37496
H         -7.78793        1.60432        2.25142
H         -6.26195        1.66424        3.16406
H         -6.98576        0.09805        2.74562
C         -0.27154        1.50568        2.82838
H          0.24607        2.39046        2.45639
C         -0.52976       -0.87106        3.00633
H         -0.23150       -1.88895        2.74494
C         -1.39545        1.68973        3.62373
H         -1.75364        2.68982        3.87592
C         -1.64778       -0.70294        3.81905
H         -2.17068       -1.58454        4.19003
C         -2.10894        0.58717        4.10841
O         -3.22062        0.85926        4.81955
C         -4.01352       -0.20709        5.26494
H         -3.46757       -0.85946        5.96858
H         -4.87225        0.23579        5.78489
H         -4.38286       -0.81826        4.42291
H          3.06070       -0.16910        3.07271
H          2.29374       -1.73626        2.75937
C          3.99933       -1.35980        1.49305
H          3.64049       -1.92967        0.61750
H          4.55574       -0.49714        1.08804
C          4.94074       -2.22150        2.32198
H          4.38288       -3.09213        2.71231
H          5.27750       -1.65788        3.21159
C          6.15470       -2.70870        1.54311
H          5.81012       -3.26388        0.65287
H          6.70848       -1.83589        1.15339
C          7.08923       -3.58337        2.36299
H          7.95558       -3.91921        1.77299
H          6.57090       -4.48234        2.73373
H          7.47512       -3.04202        3.24200
H          1.18155        2.17448        0.62908
H          2.50354        2.00433        1.80227
C          3.05595        1.75974       -0.28905
H          4.00813        1.23999       -0.09119
H          2.62214        1.27422       -1.17868
C          3.31227        3.22824       -0.59934
H          3.84451        3.70525        0.24407
H          2.33987        3.74483       -0.67312
C          4.08223        3.46261       -1.89033
H          5.08278        3.00074       -1.81659
H          3.56628        2.93085       -2.70952
C          4.20797        4.93616       -2.24378
H          4.76049        5.08614       -3.18387
H          4.73918        5.49283       -1.45449
H          3.21226        5.39425       -2.36012
