86
Cat273.ts34.5.log	Energy: -2782988.6048186
C         -1.02512        0.09545       -3.70041
H         -0.88771       -0.75340       -4.37639
H         -2.06237        0.43954       -3.63125
C          0.01808        1.08826       -3.67600
H          0.94071        0.91978       -4.23923
H         -0.27522        2.14505       -3.67958
H          0.21184        1.39771       -2.13796
Ir         0.01148       -0.24350       -1.84666
C         -1.63093        1.89297        0.46016
C         -3.45600        0.32913       -1.11539
C         -2.10294       -0.93668        0.94844
C          1.56348       -1.27201        1.15730
C          3.38406       -0.79953       -1.00158
C          2.25230        1.40084        0.41813
P          1.77333       -0.21729       -0.32331
P         -1.76246        0.27970       -0.39207
C          0.31704       -2.07570       -2.18448
O          0.51563       -3.20128       -2.37110
C         -1.76321        3.05542       -0.32268
H         -2.06358        2.97010       -1.37130
C         -1.21829        2.04537        1.78429
H         -1.09646        1.16652        2.41934
C         -1.50480        4.30897        0.20228
H         -1.60935        5.21175       -0.40275
C         -0.93500        3.30234        2.32306
H         -0.59266        3.37264        3.35555
C         -1.07191        4.44510        1.53169
O         -0.79538        5.69649        1.93852
C         -0.30139        5.89286        3.23694
H          0.66408        5.38054        3.38632
H         -0.14691        6.97290        3.35182
H         -1.01963        5.55139        4.00268
C         -4.43224        1.26740       -0.76429
H         -4.19670        2.06654       -0.05792
C         -3.79447       -0.69241       -2.01237
H         -3.03418       -1.42726       -2.29239
C         -5.71511        1.19742       -1.30261
H         -6.47613        1.93118       -1.03181
C         -5.07443       -0.78093       -2.54789
H         -5.33722       -1.57862       -3.24445
C         -6.02919        0.17183       -2.19202
Cl        -7.62231        0.07988       -2.86454
C         -2.93048       -0.64424        2.04131
H         -3.36855        0.35100        2.14807
C         -1.60728       -2.23416        0.81065
H         -0.97387       -2.46986       -0.04584
C         -3.21065       -1.61023        3.00235
H         -3.84081       -1.37977        3.86284
C         -1.90540       -3.21916        1.74659
H         -1.51917       -4.23179        1.62668
C         -2.68841       -2.89527        2.84969
Cl        -3.02121       -4.10473        4.04573
C          1.08693       -0.74427        2.36664
H          0.95460        0.33374        2.47135
C          1.72500       -2.65747        1.06058
H          2.08051       -3.10279        0.12762
C          0.77564       -1.56873        3.43483
H          0.38967       -1.16482        4.37237
C          1.42533       -3.49793        2.13140
H          1.56141       -4.57359        2.01674
C          0.93270       -2.95668        3.32562
O          0.57862       -3.67828        4.40196
C          0.61111       -5.07666        4.32711
H          1.63408       -5.45605        4.15787
H          0.24713       -5.45000        5.29213
H         -0.05151       -5.45700        3.53086
C          4.41209       -1.30395       -0.19510
H          4.25747       -1.42899        0.87902
C          3.59954       -0.69063       -2.37819
H          2.77869       -0.33222       -3.00643
C          5.63172       -1.68080       -0.74764
H          6.43101       -2.08191       -0.12243
C          4.81726       -1.05559       -2.94457
H          4.98440       -0.97186       -4.01952
C          5.82875       -1.54839       -2.12240
Cl         7.34431       -2.01668       -2.81488
C          3.20152        1.46672        1.44881
H          3.66542        0.55480        1.82919
C          1.68063        2.58831       -0.03776
H          0.92943        2.54652       -0.82830
C          3.55385        2.68269        2.02121
H          4.28496        2.73128        2.82962
C          2.02685        3.81743        0.51858
H          1.56086        4.73993        0.17047
C          2.95568        3.85323        1.55273
Cl         3.36532        5.37051        2.28640
