90
Cat303.ts34.5.log	Energy: -1709159.1962707
C         -1.05374       -0.04976       -3.53852
H         -0.84220       -0.88997       -4.20622
H         -2.11693        0.20409       -3.47234
C         -0.09982        1.03051       -3.52366
H          0.83725        0.93705       -4.08056
H         -0.48474        2.05769       -3.54208
H          0.05344        1.37051       -1.99065
Ir         0.00592       -0.27971       -1.68364
C         -1.70435        1.75857        0.63704
C         -3.48515        0.11341       -0.90976
C         -2.01542       -1.09645        1.13049
C          1.72360       -1.23898        1.23674
C          3.44107       -0.41542       -0.88461
C          2.03374        1.56568        0.62389
P          1.77728       -0.06977       -0.17806
P         -1.78159        0.13468       -0.21568
C          0.43936       -2.09034       -1.98628
O          0.70996       -3.20430       -2.15458
C         -1.27313        1.91975        1.95819
H         -1.10335        1.04270        2.58352
C         -1.91690        2.91173       -0.13569
H         -2.23215        2.81264       -1.17821
C         -1.05006        3.18547        2.49734
H         -0.69138        3.31401        3.51988
C         -1.72185        4.18176        0.39387
H         -1.88740        5.08205       -0.20079
C         -1.27686        4.30014        1.70609
F         -1.04116        5.51697        2.20500
C         -3.79256       -0.92230       -1.80237
H         -3.00573       -1.62538       -2.09073
C         -4.50108        1.00063       -0.54306
H         -4.29731        1.80672        0.16535
C         -5.07761       -1.06127       -2.31271
H         -5.29474       -1.88131       -3.00318
C         -5.78484        0.86189       -1.06819
H         -6.56485        1.56752       -0.76804
C         -6.09764       -0.16658       -1.96212
C         -7.47286       -0.30107       -2.54694
H         -8.21472        0.26967       -1.97061
H         -7.49896        0.07387       -3.58374
H         -7.79586       -1.35263       -2.57592
C         -2.83059       -0.85372        2.24236
H         -3.34483        0.10494        2.34802
C         -1.42869       -2.35800        0.99734
H         -0.80069       -2.55861        0.12815
C         -2.99458       -1.82782        3.22431
H         -3.61660       -1.61143        4.09752
C         -1.62305       -3.33735        1.96362
H         -1.14497       -4.31272        1.83965
C         -2.38561       -3.08315        3.10883
C         -2.51767       -4.12584        4.17907
H         -2.94833       -5.05700        3.77825
H         -1.52782       -4.37934        4.59124
H         -3.15636       -3.78384        5.00532
C          2.15859       -2.55790        1.05131
H          2.62444       -2.85163        0.10776
C          1.11779       -0.89804        2.45218
H          0.76292        0.12004        2.61238
C          1.99316       -3.51139        2.05238
H          2.31964       -4.54384        1.91572
C          0.95448       -1.83711        3.46490
H          0.47028       -1.58112        4.40854
C          1.38879       -3.13655        3.24566
F          1.20137       -4.05421        4.19742
C          3.58551       -0.54649       -2.26525
H          2.68918       -0.47875       -2.88946
C          4.58071       -0.52549       -0.07529
H          4.49403       -0.43948        1.01024
C          4.84040       -0.77688       -2.82858
H          4.93174       -0.87993       -3.91336
C          5.82681       -0.75878       -0.64104
H          6.70353       -0.84664        0.00716
C          5.98093       -0.88651       -2.03022
C          7.33455       -1.13732       -2.62657
H          7.77752       -2.06526       -2.23126
H          7.28371       -1.22620       -3.72055
H          8.03207       -0.31939       -2.38513
C          2.72857        1.71819        1.83032
H          3.12142        0.84508        2.35505
C          1.56291        2.71785       -0.01255
H          1.01351        2.61833       -0.95037
C          2.90708        2.97887        2.39486
H          3.43537        3.06848        3.34815
C          1.76048        3.97492        0.54402
H          1.36836        4.85587        0.02883
C          2.41889        4.13026        1.76896
C          2.55709        5.48743        2.39165
H          3.05583        6.19187        1.70768
H          1.56367        5.90554        2.61959
H          3.13626        5.45038        3.32470
