90
Cat334.ts34.5.log	Energy: -2161317.1343327
C         -1.21088       -0.15902       -3.58552
H         -0.78345       -0.83819       -4.32869
H         -2.30002       -0.22849       -3.49551
C         -0.60588        1.14332       -3.46395
H          0.30482        1.37688       -4.02389
H         -1.27190        2.01160       -3.38306
H         -0.49023        1.37549       -1.91972
Ir        -0.07532       -0.24970       -1.76190
C         -2.08766        1.02589        0.83174
C         -3.52652       -0.77463       -0.89825
C         -1.75598       -1.84549        0.96066
C          2.28550       -0.92591        0.74628
C          3.23963        0.83418       -1.28353
C          1.48338        1.85177        0.69975
P          1.69216        0.38439       -0.38861
P         -1.84066       -0.44525       -0.23304
C          0.78142       -1.87897       -2.17354
O          1.31021       -2.88627       -2.39115
C         -1.63193        1.09153        2.15229
H         -1.22706        0.19978        2.63435
C         -2.60847        2.19206        0.25028
H         -2.94578        2.17421       -0.78979
C         -1.68731        2.28026        2.87593
H         -1.30892        2.32955        3.89773
C         -2.70277        3.37629        0.97025
H         -3.12270        4.27548        0.51696
C         -2.22955        3.41457        2.28197
Cl        -2.29100        4.90204        3.17247
C         -3.62299       -1.76767       -1.87990
H         -2.71242       -2.25382       -2.24103
C         -4.69442       -0.16112       -0.43270
H         -4.63485        0.60081        0.34845
C         -4.86990       -2.13198       -2.38056
H         -4.94146       -2.91245       -3.14208
C         -5.95218       -0.50844       -0.93714
C         -7.19509        0.17539       -0.44452
H         -7.98301       -0.55251       -0.19747
H         -6.99452        0.77812        0.45245
H         -7.60745        0.84949       -1.21329
C         -6.02394       -1.50424       -1.91835
H         -6.99852       -1.79298       -2.32221
C         -2.67085       -1.96421        2.01498
H         -3.43302       -1.19722        2.17364
C         -0.81896       -2.85790        0.75403
H         -0.11399       -2.75605       -0.07235
C         -2.61187       -3.07104        2.85694
H         -3.31972       -3.16137        3.68478
C         -0.76055       -3.98748        1.57741
C          0.25222       -5.06571        1.32585
H         -0.23842       -6.03306        1.13285
H          0.88075       -4.82350        0.45777
H          0.91721       -5.20438        2.19255
C         -1.66567       -4.07308        2.64017
H         -1.63552       -4.94159        3.30462
C          3.35068       -1.75869        0.38593
H          3.90187       -1.57087       -0.53804
C          1.58788       -1.19998        1.92887
H          0.73447       -0.58212        2.21162
C          3.71851       -2.83404        1.19098
H          4.54412       -3.48785        0.90597
C          1.95591       -2.25784        2.75147
H          1.40529       -2.46845        3.66929
C          3.02106       -3.07263        2.37284
Cl         3.46814       -4.41332        3.37791
C          3.34557        0.57233       -2.64912
H          2.49216        0.12148       -3.16448
C          4.31902        1.41820       -0.60720
H          4.23521        1.63595        0.46092
C          4.52632        0.88481       -3.32478
H          4.61101        0.67692       -4.39425
C          5.50430        1.73834       -1.27023
C          6.65671        2.36653       -0.54135
H          6.91169        3.34831       -0.97103
H          6.42633        2.51432        0.52282
H          7.56034        1.74002       -0.60848
C          5.59199        1.46080       -2.64296
H          6.51220        1.70572       -3.18146
C          2.04302        1.94922        1.97803
H          2.58503        1.10692        2.41167
C          0.80871        2.95650        0.16961
H          0.36212        2.87615       -0.82500
C          1.90698        3.13081        2.70638
H          2.33311        3.19776        3.71057
C          0.69060        4.15504        0.87506
C          0.00238        5.34361        0.27256
H         -0.52794        5.07384       -0.65109
H         -0.72379        5.77804        0.97619
H          0.72997        6.13325        0.02326
C          1.23953        4.22273        2.16233
H          1.13301        5.14197        2.74433
