94
Cat346.ts34.5.log	Energy: -2350065.1028764
C         -0.87828       -3.58084       -0.87053
H         -1.01738       -4.33679       -0.09323
H         -1.73174       -3.48340       -1.54746
C          0.45116       -3.42483       -1.40493
H          1.28936       -3.95893       -0.94633
H          0.56030       -3.32448       -2.49174
H          0.65175       -1.88968       -1.48053
Ir        -0.13352       -1.75370        0.00731
C         -1.05326        1.15276       -1.85512
O         -2.99766       -0.55538       -1.52158
O         -2.12209        0.69984        0.60040
C          1.23774        0.94203        1.85977
O          2.84334       -1.08838        1.41499
O          2.19882        0.39568       -0.63813
P          1.53828       -0.38094        0.65437
P         -1.58637       -0.16077       -0.71156
C         -0.61366       -2.30277        1.76070
O         -0.95886       -2.62738        2.81384
C         -0.67953        2.42028       -1.39808
H         -0.85174        2.70227       -0.35903
C         -0.83396        0.82106       -3.19684
H         -1.11646       -0.16895       -3.56402
C         -0.08297        3.33784       -2.25760
H          0.21995        4.32359       -1.90129
C         -0.24221        1.73000       -4.06697
H         -0.06180        1.47248       -5.11178
C          0.14202        2.98203       -3.58533
Cl         0.94968        4.09309       -4.64111
C         -3.73734       -1.65478       -1.17405
C         -3.90977       -2.02865        0.15668
H         -3.46422       -1.42344        0.94853
C         -4.31661       -2.39607       -2.20484
H         -4.16896       -2.07567       -3.23771
C         -4.63408       -3.18173        0.48030
C         -4.78731       -3.58207        1.91884
H         -3.81835       -3.55843        2.44072
H         -5.45749       -2.88778        2.45150
H         -5.20765       -4.59290        2.01422
C         -5.05468       -3.53035       -1.88436
H         -5.51043       -4.12064       -2.68304
C         -5.20296       -3.92922       -0.55519
H         -5.77095       -4.83235       -0.31816
C         -2.93304        1.80100        0.68153
C         -3.85832        2.15222       -0.29795
H         -3.96986        1.52684       -1.18468
C         -2.77834        2.57744        1.83266
H         -2.04740        2.26855        2.58049
C         -4.63636        3.30770       -0.14385
C         -5.62418        3.68302       -1.21039
H         -5.11996        3.84951       -2.17559
H         -6.36241        2.88079       -1.36704
H         -6.17004        4.60048       -0.95036
C         -3.54993        3.72226        1.98484
H         -3.42331        4.33644        2.87978
C         -4.47129        4.08958        1.00280
H         -5.07232        4.99353        1.12916
C          0.89223        0.58392        3.16810
H          0.93087       -0.46251        3.47913
C          1.17389        2.28617        1.47911
H          1.44794        2.58613        0.46726
C          0.47344        1.54745        4.07897
H          0.19007        1.27129        5.09561
C          0.75561        3.25851        2.38205
H          0.69255        4.30661        2.08606
C          0.39644        2.88027        3.67393
Cl        -0.19177        4.07597        4.77846
C          3.26550       -2.32306        0.97554
C          4.03019       -2.41658       -0.18331
H          4.29120       -1.50218       -0.72150
C          2.89715       -3.46182        1.68864
H          2.27838       -3.35938        2.58100
C          4.45040       -3.66564       -0.65584
C          5.29100       -3.75992       -1.89588
H          4.90163       -3.10992       -2.69388
H          6.32652       -3.43973       -1.69477
H          5.32982       -4.78904       -2.27936
C          3.31334       -4.70543        1.22337
H          3.02779       -5.60856        1.76783
C          4.07894       -4.80794        0.06140
H          4.39232       -5.79204       -0.29651
C          3.22958        1.29701       -0.71628
C          4.20923        1.43715        0.26404
H          4.18425        0.80314        1.15141
C          3.24656        2.08846       -1.86695
H          2.46501        1.94780       -2.61382
C          5.21996        2.39630        0.11053
C          6.26300        2.55029        1.17927
H          5.80674        2.85118        2.13581
H          6.79061        1.60061        1.35958
H          7.01041        3.30839        0.90759
C          4.24847        3.03863       -2.01740
H          4.25703        3.66757       -2.91085
C          5.22830        3.19557       -1.03587
H          6.01090        3.94781       -1.16178
