94
Cat316.ts34.5.log	Energy: -1897819.4249157
C          1.12575       -0.62156       -3.30923
H          0.96368        0.07533       -4.13661
H          2.16843       -0.93240       -3.18425
C          0.10193       -1.60896       -3.07217
H         -0.82818       -1.57929       -3.64862
H          0.42741       -2.63779       -2.87125
H         -0.10588       -1.61233       -1.52704
Ir         0.08628        0.05849       -1.55857
C          1.40750       -1.26419        1.44580
C          3.32168       -1.04052       -0.69552
C          2.54839        1.29005        0.75917
C         -1.82876        1.71257        0.83406
C         -3.40162        0.37344       -1.17340
C         -2.23734       -1.16440        0.89580
P         -1.82272        0.22751       -0.23849
P          1.82878       -0.21970       -0.00747
C         -0.09082        1.83304       -2.16874
O         -0.18068        2.92888       -2.53367
C          1.53160       -0.83243        2.77113
H          1.97098        0.14273        2.98785
C          0.82497       -2.51809        1.20900
H          0.66935       -2.84889        0.17909
C          1.08321       -1.62081        3.82973
H          1.15379       -1.28066        4.86458
C          0.41260       -3.33401        2.25456
H         -0.04744       -4.30619        2.07471
C          0.53259       -2.86430        3.55630
F          0.08391       -3.61659        4.56225
C          3.72535       -2.33648       -0.37805
H          3.19444       -2.88321        0.40352
C          4.04190       -0.33436       -1.68294
O          3.62110        0.91951       -1.92389
C          4.12242        1.63460       -3.01456
H          5.19389        1.87292       -2.89230
H          3.55104        2.57033       -3.05867
H          3.98181        1.08208       -3.96009
C          4.80412       -2.93897       -1.02689
H          5.10178       -3.95538       -0.75999
C          5.12103       -0.93419       -2.33877
H          5.67282       -0.38784       -3.10447
C          5.49702       -2.23601       -2.00746
H          6.34228       -2.69723       -2.52404
C          1.95008        2.52569        0.52457
H          1.05135        2.54951       -0.09324
C          3.72937        1.24855        1.53376
O          4.27134        0.03537        1.74157
C          5.49148       -0.08322        2.41231
H          6.29046        0.48924        1.90998
H          5.75158       -1.14906        2.39266
H          5.41857        0.25008        3.46286
C          2.47785        3.70563        1.04762
H          1.98150        4.65820        0.85307
C          4.26897        2.42953        2.05470
H          5.18004        2.40342        2.65310
C          3.63855        3.65009        1.81060
H          4.07018        4.56463        2.22534
C         -2.64126        2.81727        0.55857
H         -3.36340        2.77214       -0.25911
C         -0.88564        1.81322        1.86493
H         -0.20618        0.98199        2.06251
C         -2.53152        3.98778        1.30524
H         -3.15354        4.85949        1.09398
C         -0.77845        2.96818        2.63232
H         -0.04078        3.05514        3.43171
C         -1.60618        4.04479        2.33947
F         -1.50120        5.16218        3.05933
C         -3.36591        0.37505       -2.56596
H         -2.37800        0.33721       -3.03730
C         -4.65484        0.41870       -0.52442
O         -4.63501        0.44196        0.81881
C         -5.83247        0.40174        1.53928
H         -6.45245        1.29680        1.35579
H         -5.55380        0.37146        2.60007
H         -6.42239       -0.49976        1.29916
C         -4.53582        0.41679       -3.32402
H         -4.48426        0.42120       -4.41463
C         -5.83211        0.45233       -1.27977
H         -6.80431        0.48673       -0.78737
C         -5.76461        0.45043       -2.67328
H         -6.69259        0.47989       -3.25015
C         -2.32682       -1.04446        2.28139
H         -2.13929       -0.07634        2.74627
C         -2.52747       -2.41640        0.31326
O         -2.44119       -2.47915       -1.02931
C         -2.81483       -3.64625       -1.70128
H         -2.16730       -4.50036       -1.43483
H         -2.70372       -3.43627       -2.77243
H         -3.86536       -3.91589       -1.49588
C         -2.68109       -2.12767        3.08517
H         -2.72962       -2.00907        4.16932
C         -2.89769       -3.50227        1.11235
H         -3.13034       -4.46648        0.65963
C         -2.96973       -3.35332        2.49680
H         -3.25046       -4.20920        3.11523
