110
Cat306.ts34.5.log	Energy: -2185014.7600334
C         -0.87200       -1.46931       -3.07009
H         -0.70113       -2.52325       -3.30822
H         -1.90842       -1.14798       -3.22272
C          0.19210       -0.55078       -3.38986
H          1.14939       -0.94330       -3.74265
H         -0.07455        0.39862       -3.87329
H          0.28873        0.35812       -2.15109
Ir         0.01665       -0.99132       -1.18086
C         -2.02421        1.87180       -0.26818
C         -3.38973       -0.61449       -0.99976
C         -2.13381       -0.24821        1.60914
C          1.60519        0.20140        1.82058
C          3.56512       -1.04392        0.16170
C          2.36568        1.35578       -0.80402
P          1.89281       -0.22876        0.05201
P         -1.86427        0.02035       -0.19934
C         -0.10757       -2.76387       -0.57783
O         -0.29577       -3.86191       -0.25361
C         -1.08758        2.59128       -1.01312
H         -0.28929        2.04385       -1.51869
C         -3.03837        2.58040        0.39092
H         -3.79658        2.04230        0.95976
C         -1.15330        3.97823       -1.12044
H         -0.41919        4.53704       -1.70416
C         -3.11243        3.96836        0.30395
H         -3.89832        4.53035        0.81267
C         -2.16811        4.65072       -0.45402
F         -2.23147        5.98284       -0.53339
C         -3.83064       -1.91172       -0.67343
O         -3.15157       -2.51315        0.31602
C         -3.35816       -3.86261        0.61348
H         -2.61386       -4.11529        1.37758
H         -4.37285       -4.04517        1.01175
H         -3.19421       -4.50149       -0.27025
C         -4.00499        0.03107       -2.08618
O         -3.46075        1.20314       -2.46763
C         -4.05203        1.95952       -3.48134
H         -3.45530        2.87709       -3.56650
H         -5.09333        2.23216       -3.23563
H         -4.04026        1.43094       -4.45110
C         -5.09536       -0.54926       -2.74993
H         -5.57926       -0.03209       -3.57765
C         -4.90558       -2.50830       -1.34055
H         -5.24195       -3.50803       -1.06690
C         -5.53799       -1.80962       -2.36453
H         -6.38153       -2.26613       -2.88780
C         -3.30166       -0.13199        2.27513
O         -4.45101        0.17404        1.60809
C         -5.57147       -0.64594        1.82596
H         -6.27193       -0.44633        1.00444
H         -5.29625       -1.71239        1.80007
H         -6.07471       -0.42489        2.78396
C         -0.88385       -0.61418        2.38048
O         -0.62787       -1.94866        2.07237
C          0.36835       -2.64072        2.77083
H          0.55855       -3.55929        2.20090
H          0.04242       -2.92780        3.78854
H          1.31133       -2.07777        2.83964
C         -0.95067       -0.26653        3.88735
H         -0.31842       -0.97245        4.44572
C         -3.38941       -0.17967        3.73778
H         -4.38330       -0.12578        4.18778
C         -2.29372       -0.19862        4.51139
H         -2.37933       -0.17538        5.60174
C          2.58304        0.30482        2.74257
H          3.61784        0.09508        2.47262
C          0.18684        0.51812        2.17353
H         -0.17529        1.23593        1.42429
C          2.32883        0.76499        4.10260
H          3.15284        0.84482        4.81440
C         -0.09917        1.01347        3.62043
H         -0.70780        1.93065        3.65938
C          1.09824        1.13868        4.47993
F          0.85752        1.59581        5.71257
C          4.75465       -0.28361        0.22064
O          4.62455        1.02776        0.50113
C          5.66284        1.92039        0.21679
H          5.24470        2.92793        0.34099
H          6.51646        1.79684        0.90630
H          6.01781        1.81070       -0.82208
C          3.70493       -2.44404        0.06115
O          2.58928       -3.18161        0.15889
C          2.67382       -4.57375        0.00855
H          1.64858       -4.95099        0.07996
H          3.29454       -5.02824        0.80019
H          3.08780       -4.85031       -0.97611
C          4.96603       -3.03465       -0.11891
H          5.06161       -4.11388       -0.22147
C          6.01348       -0.86530        0.03134
H          6.91553       -0.25502        0.05971
C          6.10240       -2.23863       -0.15302
H          7.08102       -2.70318       -0.29634
C          3.00230        1.24150       -2.05635
O          3.25553       -0.01437       -2.47050
C          3.99901       -0.23806       -3.63070
H          4.11658       -1.32583       -3.71513
H          3.48238        0.13805       -4.53154
H          4.99943        0.22576       -3.57024
C          2.10505        2.64849       -0.32025
O          1.49083        2.74278        0.87247
C          1.29181        3.99221        1.46894
H          0.83508        3.79637        2.44731
H          0.60836        4.62481        0.87800
H          2.24604        4.52564        1.62200
C          2.46827        3.78475       -1.05974
H          2.25661        4.78184       -0.67592
C          3.36374        2.36930       -2.80214
H          3.85152        2.26291       -3.77033
C          3.09077        3.63420       -2.29235
H          3.36731        4.52021       -2.86869
