108
Cat376.ts34.5.log	Energy: -1732582.9689074
C          0.36277       -2.95515       -2.76042
H         -0.07585       -3.02403       -3.75983
H          1.45182       -3.07053       -2.75577
C         -0.38500       -3.53699       -1.67407
H         -1.38911       -3.93027       -1.85446
H          0.15389       -4.12760       -0.92305
H         -0.29151       -2.46660       -0.51502
Ir        -0.48216       -1.28719       -1.69601
C          1.85105       -0.50285        0.86676
C          3.03127       -1.00422       -1.76209
C          1.64149        1.53503       -1.25158
C         -2.06449        1.47829       -0.05887
C         -3.83494       -0.54030       -0.93364
C         -2.15782       -0.99107        1.42448
P         -2.07569       -0.34161       -0.31250
P          1.50752       -0.30908       -0.92068
C         -1.17664       -0.44795       -3.23456
O         -1.61431        0.08504       -4.16812
C          1.21696        0.33794        1.79581
H          0.59827        1.16704        1.44898
C          2.60404       -1.56924        1.36874
H          3.07206       -2.28188        0.68719
C          1.36689        0.13849        3.16265
H          0.86768        0.82103        3.85655
C          2.75625       -1.76237        2.74118
H          3.35836       -2.60225        3.09913
C          2.14642       -0.91187        3.66691
C          2.29364       -1.12209        5.14490
H          1.32765       -1.38288        5.60720
H          3.00098       -1.93307        5.36852
H          2.65422       -0.20971        5.64537
H          3.09622       -2.05431       -1.43937
H          2.72650       -1.03683       -2.81910
C          4.33978       -0.29402       -1.61432
C          4.71089        0.69281       -2.53791
H          4.06881        0.89551       -3.39933
C          5.20912       -0.55774       -0.54740
H          4.94614       -1.32744        0.17972
C          5.88760        1.41727       -2.36732
H          6.15568        2.19340       -3.08807
C          6.39590        0.15670       -0.36174
C          7.30120       -0.15564        0.79431
H          6.73927       -0.57645        1.64069
H          8.06887       -0.89374        0.50760
H          7.82813        0.74324        1.14628
C          6.72124        1.16013       -1.28210
H          7.63889        1.73964       -1.14906
H          2.28451        1.60456       -2.14310
H          0.63548        1.83660       -1.56677
C          2.13245        2.46026       -0.17461
C          1.26816        3.43457        0.34126
H          0.25705        3.52133       -0.05897
C          3.41794        2.36242        0.36186
H          4.10115        1.60384       -0.01859
C          1.68249        4.27109        1.37330
H          0.99337        5.02091        1.77106
C          3.85018        3.19240        1.40066
C          5.23150        3.02272        1.96460
H          5.98976        3.04190        1.16654
H          5.47426        3.81076        2.69154
H          5.32907        2.04990        2.47372
C          2.96522        4.15043        1.90495
H          3.28436        4.80539        2.72058
C         -1.96561        2.28820       -1.20006
H         -1.81148        1.82914       -2.17977
C         -2.25966        2.10183        1.17639
H         -2.36356        1.51027        2.08717
C         -2.08459        3.67024       -1.10711
H         -2.01535        4.27625       -2.01480
C         -2.35271        3.49031        1.26725
H         -2.50344        3.95244        2.24675
C         -2.27558        4.29999        0.13093
C         -2.35113        5.79456        0.22973
H         -2.79629        6.11525        1.18221
H         -1.34447        6.24093        0.16680
H         -2.94577        6.22304       -0.59087
H         -3.79956       -0.15561       -1.96425
H         -3.99482       -1.62582       -1.01129
C         -4.88920        0.14574       -0.12140
C         -5.56473       -0.51439        0.91486
H         -5.37989       -1.57524        1.09855
C         -5.18213        1.49605       -0.34328
H         -4.67204        2.02179       -1.15441
C         -6.48251        0.16844        1.70840
H         -7.00646       -0.36048        2.50834
C         -6.08925        2.20226        0.45175
C         -6.32365        3.66464        0.20650
H         -5.42784        4.24907        0.47393
H         -6.53284        3.86489       -0.85557
H         -7.16687        4.04634        0.79916
C         -6.73783        1.52011        1.48588
H         -7.45469        2.05154        2.11777
H         -1.35512       -0.47497        1.97048
H         -3.12231       -0.68128        1.85803
C         -1.95323       -2.47244        1.52737
C         -2.94513       -3.38453        1.14567
H         -3.91395       -3.02539        0.79521
C         -0.72646       -2.97106        1.97501
H          0.05341       -2.26588        2.27200
C         -2.70423       -4.75334        1.20583
H         -3.48567       -5.45570        0.90565
C         -0.46682       -4.34545        2.04228
C          0.87081       -4.84310        2.50804
H          1.17074       -4.36057        3.45034
H          0.86497       -5.93123        2.66276
H          1.65578       -4.61037        1.77020
C         -1.47271       -5.23255        1.64877
H         -1.29070       -6.30981        1.69325
