100
Cat387.ts34.5.log	Energy: -1822635.5615899
C         -0.55793       -3.15120       -1.10464
H         -0.40709       -4.01468       -0.45031
H         -1.54298       -3.13066       -1.58497
C          0.57800       -2.70425       -1.87423
H          1.56224       -3.15024       -1.69919
H          0.41744       -2.47486       -2.93610
H          0.57051       -1.18554       -1.74639
Ir         0.10341       -1.35428       -0.12566
C         -1.73761        1.37235       -1.65566
C         -3.36318       -0.88159       -0.92651
C         -2.44487        0.79448        1.08703
C          2.11805        0.60799        2.06145
C          3.51408       -1.05132        0.15842
C          2.35072        1.41044       -0.69743
P          1.97695       -0.04508        0.34540
P         -1.81250       -0.01564       -0.44278
C          0.08831       -2.08684        1.60714
O          0.08539       -2.53688        2.67367
C         -1.69137        2.69991       -1.20666
H         -1.80334        2.90759       -0.14185
C         -1.58967        1.11278       -3.03887
C         -1.62507       -0.27428       -3.61328
H         -2.64292       -0.54826       -3.93358
H         -1.31393       -1.02601       -2.87661
H         -0.96740       -0.34980       -4.49175
C         -1.50394        3.76038       -2.08811
H         -1.46184        4.78280       -1.70563
C         -1.41654        2.19539       -3.90889
H         -1.30636        1.99306       -4.97846
C         -1.37115        3.50892       -3.45002
H         -1.22271        4.33073       -4.15449
C         -4.32637       -0.34272       -1.79204
H         -4.14844        0.62473       -2.26937
C         -3.63629       -2.11063       -0.32163
H         -2.89783       -2.53907        0.36185
C         -5.51021       -1.01742       -2.05346
H         -6.26190       -0.60561       -2.72977
C         -4.82525       -2.79553       -0.56597
H         -5.00000       -3.75089       -0.07064
C         -5.77120       -2.25158       -1.44252
O         -6.94551       -2.83598       -1.75450
C         -7.26215       -4.06645       -1.16786
H         -7.31606       -3.99602       -0.06695
H         -8.24851       -4.35496       -1.55301
H         -6.53181       -4.85048       -1.43592
C         -1.76603        0.65524        2.30228
H         -0.82954        0.09662        2.32437
C         -3.64796        1.50930        1.08544
H         -4.21648        1.61796        0.15859
C         -2.25454        1.22215        3.47023
H         -1.71775        1.11444        4.41454
C         -4.15038        2.09101        2.24624
H         -5.09033        2.64160        2.20163
C         -3.45001        1.95008        3.45280
O         -3.85274        2.47230        4.62796
C         -5.04859        3.19761        4.67160
H         -5.91566        2.58028        4.37698
H         -5.18252        3.52233        5.71137
H         -5.01342        4.09015        4.02175
C          2.85308       -0.12974        2.99907
H          3.40872       -1.01040        2.67158
C          1.39548        1.74753        2.48371
C          0.59376        2.60357        1.54915
H          0.16803        2.01843        0.72442
H          1.21656        3.38700        1.08923
H         -0.23214        3.08973        2.08617
C          2.88443        0.23586        4.34110
H          3.46069       -0.35926        5.05312
C          1.44333        2.09486        3.83938
H          0.87842        2.97039        4.17163
C          2.17411        1.35554        4.76452
H          2.18372        1.65266        5.81602
C          4.75210       -0.50284       -0.21249
H          4.83474        0.56153       -0.43711
C          3.45842       -2.42564        0.40523
H          2.49419       -2.86880        0.67027
C          5.88385       -1.29576       -0.31980
H          6.84555       -0.87298       -0.61682
C          4.59013       -3.23481        0.31378
H          4.49857       -4.30128        0.52111
C          5.81685       -2.67040       -0.05227
O          6.96580       -3.36065       -0.18013
C          6.95772       -4.73733        0.07481
H          6.28369       -5.27859       -0.61240
H          7.98395       -5.09281       -0.08231
H          6.65774       -4.96100        1.11380
C          1.75081        1.53922       -1.95584
H          1.03456        0.78199       -2.28157
C          3.22977        2.41301       -0.27701
H          3.69061        2.35101        0.71298
C          2.02471        2.62514       -2.77115
H          1.54363        2.73566       -3.74368
C          3.51337        3.51371       -1.08399
H          4.19799        4.27952       -0.71864
C          2.90843        3.62401       -2.34279
O          3.10784        4.64969       -3.19308
C          3.97283        5.68280       -2.81498
H          5.00072        5.31711       -2.64326
H          3.98713        6.40148       -3.64422
H          3.62389        6.19843       -1.90267
