84
Cat359.ts34.5.log	Energy: -1784344.6238458
C         -1.04679       -0.09305       -3.54634
H         -0.83736       -0.94303       -4.20221
H         -2.10942        0.16349       -3.48266
C         -0.09336        0.98699       -3.55008
H          0.84123        0.88574       -4.10976
H         -0.47852        2.01355       -3.58134
H          0.06426        1.34921       -2.02148
Ir         0.01516       -0.29593       -1.68891
C         -1.70228        1.74805        0.63741
C         -3.47566        0.12248       -0.94075
C         -2.03935       -1.09917        1.10918
C          1.71211       -1.20357        1.26737
C          3.44187       -0.46549       -0.88203
C          2.06970        1.56973        0.58117
P          1.78340       -0.08172       -0.18066
P         -1.77721        0.13514       -0.23061
C          0.45497       -2.10774       -1.98137
O          0.73070       -3.21982       -2.14912
C         -1.31525        1.89009        1.97425
H         -1.17229        1.00433        2.59473
C         -1.88106        2.91441       -0.12086
H         -2.16378        2.83655       -1.17497
C         -1.10482        3.15054        2.52788
H         -0.78661        3.22835        3.57137
C         -1.69422        4.17104        0.44435
H         -1.85046        5.06339       -0.16865
C         -1.28748        4.31560        1.77707
C         -1.00435        5.66460        2.36801
H         -1.43833        6.47239        1.76194
H         -1.40415        5.74978        3.38958
H          0.08270        5.84021        2.43056
C         -3.78584       -0.93113       -1.81225
H         -3.00486       -1.65023       -2.07555
C         -4.47933        1.03871       -0.60726
H         -4.26545        1.86089        0.07897
C         -5.06435       -1.07163       -2.34049
H         -5.31820       -1.88881       -3.01805
C         -5.76181        0.91637       -1.13852
H         -6.55360        1.62554       -0.89001
C         -6.03735       -0.13883       -1.99852
F         -7.26121       -0.25962       -2.50843
C         -1.40836       -2.34176        1.01650
H         -0.72923       -2.52759        0.18342
C         -2.92239       -0.86668        2.17337
H         -3.46018        0.08208        2.24288
C         -1.62401       -3.32929        1.97260
H         -1.12952       -4.29938        1.90859
C         -3.12665       -1.83306        3.15305
H         -3.79841       -1.66308        3.99641
C         -2.46545       -3.05193        3.03909
F         -2.64157       -3.97601        3.98653
C          2.09953       -2.54089        1.12555
H          2.54192       -2.88631        0.18786
C          1.13782       -0.80327        2.47998
H          0.82257        0.23233        2.61337
C          1.91526       -3.44505        2.16912
H          2.22228       -4.48584        2.03370
C          0.96073       -1.71022        3.51802
H          0.50213       -1.37261        4.45167
C          1.33754       -3.05132        3.38108
C          1.07862       -4.03384        4.48402
H          1.41807       -3.64651        5.45677
H         -0.00171       -4.23497        4.57564
H          1.58447       -4.99216        4.30145
C          3.59413       -0.51373       -2.27003
H          2.70487       -0.37746       -2.89299
C          4.56413       -0.67515       -0.06881
H          4.46469       -0.66646        1.01872
C          4.83943       -0.75316       -2.84626
H          4.97236       -0.79754       -3.92863
C          5.81266       -0.92032       -0.62840
H          6.69546       -1.09274       -0.01016
C          5.93331       -0.95146       -2.01472
F          7.12695       -1.18638       -2.55301
C          1.53995        2.70894       -0.02892
H          0.92382        2.59336       -0.92190
C          2.84511        1.73187        1.73904
H          3.27298        0.86267        2.24185
C          1.75977        3.97830        0.49504
H          1.33795        4.86818        0.02612
C          3.06080        2.99219        2.28681
H          3.64851        3.12808        3.19634
C          2.50865        4.10073        1.65545
F          2.68919        5.31034        2.18886
