88
Cat367.ts34.5.log	Energy: -1973094.4677016
C          1.24373        0.38067        3.58515
H          0.97150       -0.29606        4.39918
H          2.32328        0.45351        3.42110
C          0.43607        1.56358        3.41570
H         -0.47148        1.68567        4.01267
H          0.94530        2.51923        3.23525
H          0.22512        1.65589        1.87677
Ir         0.02517       -0.01556        1.85035
C          2.89468        0.87573       -0.23628
O          2.80945       -1.49259        1.06721
O          1.42169       -1.08675       -1.07185
C         -2.87888       -0.81255       -0.22179
O         -2.76742        1.52212        1.15403
O         -1.37142        1.15997       -0.97031
P         -1.72571        0.39887        0.47119
P          1.74658       -0.37491        0.40584
C         -0.57668       -1.67209        2.56241
O         -0.86322       -2.70401        2.99279
C          3.62823        0.71176       -1.41683
H          3.48960       -0.18835       -2.01784
C          3.08057        2.03441        0.52256
H          2.49800        2.17696        1.43584
C          4.51949        1.69748       -1.82554
H          5.08261        1.56052       -2.75291
C          3.98340        3.00974        0.11334
H          4.10708        3.91645        0.71135
C          4.70923        2.86466       -1.07429
C          5.61787        3.95773       -1.54966
H          5.02101        4.78150       -1.97430
H          6.21064        4.37795       -0.72357
H          6.30933        3.60398       -2.32701
C          3.98610       -1.84462        0.45892
C          4.00444       -2.83089       -0.52826
H          3.07308       -3.31864       -0.81988
C          5.16959       -1.21478        0.84579
H          5.13001       -0.44046        1.61357
C          5.20811       -3.18278       -1.13428
H          5.25143       -3.95121       -1.90816
C          6.37457       -1.56412        0.24470
H          7.31296       -1.08383        0.52699
C          6.37764       -2.54271       -0.74242
F          7.52976       -2.87631       -1.32523
C          0.46405       -2.04600       -1.23884
C          0.26644       -3.07227       -0.31049
H          0.88612       -3.12378        0.58529
C         -0.31756       -1.98629       -2.39248
H         -0.14863       -1.17713       -3.10386
C         -0.73316       -4.01719       -0.52481
H         -0.92042       -4.81112        0.19978
C         -1.30680       -2.93802       -2.61655
H         -1.93916       -2.90269       -3.50455
C         -1.51051       -3.93492       -1.67182
F         -2.48092       -4.83291       -1.86947
C         -3.24499       -1.92293        0.54489
H         -2.79608       -2.08813        1.52462
C         -3.48351       -0.62125       -1.47020
H         -3.20949        0.24374       -2.07470
C         -4.18547       -2.82886        0.06613
H         -4.44792       -3.69898        0.67338
C         -4.42167       -1.53276       -1.93898
H         -4.88295       -1.37073       -2.91708
C         -4.78243       -2.65756       -1.18728
C         -5.73503       -3.67929       -1.72852
H         -6.38518       -3.25786       -2.50811
H         -5.16910       -4.51360       -2.17470
H         -6.36991       -4.10150       -0.93598
C         -3.97202        1.83788        0.57448
C         -4.04467        2.78490       -0.44738
H         -3.13560        3.27751       -0.79497
C         -5.12760        1.19940        1.02577
H         -5.04488        0.45675        1.82070
C         -5.27587        3.08992       -1.02324
H         -5.36167        3.82658       -1.82397
C         -6.35896        1.50002        0.45322
H         -7.27625        1.01038        0.78451
C         -6.41686        2.44066       -0.56869
F         -7.59458        2.72767       -1.12369
C         -0.45661        2.16246       -1.10908
C         -0.39170        3.24438       -0.22503
H         -1.07782        3.29436        0.62165
C          0.40756        2.10020       -2.20223
H          0.34868        1.24091       -2.87040
C          0.54991        4.24999       -0.43100
H          0.62843        5.09937        0.24984
C          1.34053        3.10868       -2.41631
H          2.03644        3.06950       -3.25513
C          1.40722        4.16600       -1.51970
F          2.32481        5.12067       -1.70158
