100
Cat366.ts34.5.log	Energy: -1822715.6986530
C         -0.66641       -1.69165       -3.25428
H         -0.32152       -2.67051       -3.59758
H         -1.75304       -1.56899       -3.22981
C          0.13381       -0.55059       -3.60705
H          1.09484       -0.69520       -4.10773
H         -0.38579        0.35741       -3.93600
H          0.26833        0.28378       -2.28861
Ir         0.37204       -1.16207       -1.42742
C         -1.66552        0.72691        0.87506
O         -2.83551       -0.34967       -1.32913
O         -2.06417       -1.93176        0.59608
C          3.04530       -1.47256        0.82603
O          3.29082        0.29364       -1.23758
O          1.91192        0.85475        0.86906
P          2.11858       -0.35630       -0.25787
P         -1.54061       -0.63854       -0.32091
C          0.89017       -2.95937       -1.07922
O          1.15926       -4.05723       -0.86298
C         -1.43246        0.50082        2.23365
H         -1.19767       -0.50847        2.57917
C         -1.90065        2.03664        0.43707
H         -2.03986        2.24618       -0.62546
C         -1.49301        1.55484        3.14210
H         -1.31044        1.36207        4.20310
C         -1.97406        3.07843        1.35087
H         -2.17194        4.09150        0.99191
C         -1.78477        2.85551        2.72056
C         -1.88782        3.98753        3.69809
H         -2.94226        4.23943        3.89983
H         -1.41756        3.73729        4.65969
H         -1.40733        4.89636        3.30561
C         -3.93928        0.45557       -1.24799
C         -4.71515        0.60606       -0.09920
H         -4.45273        0.08256        0.81911
C         -4.29078        1.13934       -2.41300
H         -3.66834        1.01162       -3.30111
C         -5.83069        1.43856       -0.13100
H         -6.42644        1.54908        0.77935
C         -5.41129        1.96327       -2.42792
H         -5.67221        2.49213       -3.34906
C         -6.20530        2.13079       -1.28707
C         -7.43122        2.99722       -1.31389
H         -7.66384        3.39729       -0.31626
H         -8.31393        2.42821       -1.65168
H         -7.31037        3.84698       -2.00194
C         -3.36552       -2.20960        0.91406
C         -4.22622       -2.71739       -0.06200
H         -3.84586       -2.87671       -1.07175
C         -3.83025       -2.01559        2.21330
H         -3.15155       -1.63439        2.97620
C         -5.55050       -2.98679        0.25886
H         -6.21827       -3.36944       -0.51802
C         -5.16059       -2.29886        2.52083
H         -5.51594       -2.13882        3.54254
C         -6.04823       -2.77492        1.55189
C         -7.48925       -3.04644        1.87328
H         -7.78545       -4.06158        1.56615
H         -8.15276       -2.34251        1.34483
H         -7.68764       -2.94798        2.94980
C          3.93638       -2.38132        0.24503
H          4.10983       -2.36140       -0.83398
C          2.82898       -1.51076        2.20531
H          2.13828       -0.80044        2.66364
C          4.60673       -3.30430        1.03776
H          5.30797       -4.00216        0.57232
C          3.50037       -2.44537        2.98874
H          3.32532       -2.46624        4.06796
C          4.39790       -3.35673        2.42203
C          5.10013       -4.38122        3.26322
H          5.07102       -4.11798        4.32992
H          4.62478       -5.36996        3.15206
H          6.15322       -4.49290        2.96463
C          4.56138        0.68285       -0.90089
C          4.93469        1.11859        0.36977
H          4.20265        1.15980        1.17489
C          5.50971        0.63506       -1.92476
H          5.19500        0.28748       -2.91060
C          6.25648        1.49778        0.59962
H          6.53888        1.83411        1.60108
C          6.82045        1.02266       -1.67691
H          7.55166        0.97853       -2.48924
C          7.22293        1.46154       -0.40833
C          8.63857        1.89295       -0.15484
H          8.85591        2.85789       -0.64222
H          9.35996        1.16158       -0.55104
H          8.83553        2.01370        0.91981
C          1.54994        2.14802        0.64219
C          1.32774        2.68650       -0.62587
H          1.44372        2.06662       -1.51433
C          1.45753        2.96851        1.76787
H          1.64841        2.53314        2.74995
C          0.98104        4.03097       -0.74705
H          0.80600        4.44011       -1.74606
C          1.12932        4.30980        1.62384
H          1.07126        4.94070        2.51540
C          0.86817        4.86773        0.36606
C          0.46086        6.30607        0.22793
H         -0.61098        6.44147        0.45404
H          0.62773        6.67680       -0.79356
H          1.02079        6.95346        0.91960
