78
Cat328.ts34.5.log	Energy: -2062706.4799242
C         -1.18009       -0.25491       -3.59196
H         -0.70790       -0.90827       -4.33122
H         -2.25399       -0.43016       -3.46956
C         -0.70511        1.10311       -3.52049
H          0.16114        1.40935       -4.11444
H         -1.44920        1.90517       -3.43959
H         -0.58654        1.38095       -1.97337
Ir        -0.00006       -0.18307       -1.79691
C         -2.17488        0.92729        0.73308
C         -3.34410       -1.14553       -0.88853
C         -1.43898       -1.87437        1.00851
C          2.13500       -0.60051        0.95452
C          3.29865        0.90708       -1.17281
C          1.39075        2.15923        0.54952
P          1.67317        0.58628       -0.36561
P         -1.72235       -0.55631       -0.24524
C          1.04049       -1.69010       -2.25265
O          1.68291       -2.61620       -2.51780
C         -1.75610        1.14011        2.05036
H         -1.26496        0.33625        2.60036
C         -2.81364        1.98253        0.06247
H         -3.13306        1.84977       -0.97512
C         -1.94617        2.36907        2.67903
H         -1.59188        2.53554        3.69734
C         -3.03428        3.20431        0.68462
H         -3.53306        4.01957        0.15778
C         -2.58286        3.39626        1.99124
Cl        -2.77783        4.94452        2.74364
C         -3.30413       -2.17928       -1.83408
C         -4.58623       -0.68078       -0.44254
C         -5.71729       -2.25992       -1.88286
C         -5.76539       -1.23249       -0.94285
C         -4.48222       -2.73625       -2.32320
H         -2.33331       -2.54337       -2.18259
H         -4.43539       -3.54411       -3.05742
H         -6.64259       -2.69110       -2.27237
H         -6.72920       -0.85866       -0.58834
H         -4.63896        0.11382        0.30490
C         -0.42198       -2.80670        0.79219
C         -2.27454       -2.02312        2.12466
C         -1.03156       -3.97785        2.81304
C         -2.06050       -3.05926        3.02963
C         -0.22457       -3.85837        1.68503
H          0.22240       -2.69204       -0.08085
H          0.58057       -4.57460        1.50857
H         -0.86017       -4.78877        3.52488
H         -2.70921       -3.15847        3.90349
H         -3.10202       -1.32748        2.28619
C          2.98568       -1.66991        0.64647
H          3.46440       -1.72399       -0.33411
C          1.53041       -0.56723        2.21616
H          0.85935        0.25270        2.47395
C          3.21930       -2.68411        1.57011
H          3.87266       -3.52263        1.32394
C          1.76123       -1.56986        3.15155
H          1.27331       -1.54849        4.12689
C          2.59905       -2.63031        2.81730
Cl         2.83624       -3.92056        3.94828
C          3.36386        0.95210       -2.56691
C          4.46209        1.13329       -0.42518
C          5.72322        1.45353       -2.46015
C          5.66728        1.40287       -1.06599
C          4.57115        1.22744       -3.20892
H          2.45060        0.74897       -3.13457
H          4.61073        1.25752       -4.30039
H          6.67103        1.66446       -2.96144
H          6.57034        1.57233       -0.47465
H          4.43240        1.08627        0.66561
C          0.47691        3.08693        0.04357
C          2.10334        2.48393        1.71318
C          0.96334        4.61014        1.85171
C          1.88430        3.69610        2.36265
C          0.26801        4.30535        0.68477
H         -0.08994        2.83642       -0.85489
H         -0.46190        5.01119        0.28307
H          0.77978        5.55524        2.36765
H          2.43830        3.92700        3.27574
H          2.82501        1.77975        2.13163
