74
Cat314.ts34.5.log	Energy: -1326849.5155727
C          0.72826       -3.44545       -1.04401
H          1.25981       -4.17664       -0.42821
H         -0.24295       -3.80640       -1.40065
C          1.52582       -2.66274       -1.96294
H          2.61632       -2.74319       -1.92959
H          1.15990       -2.54855       -2.99123
H          0.94072       -1.21975       -1.82693
Ir         0.82738       -1.48937       -0.16464
C         -1.89428        0.40555       -1.37710
C         -2.61432       -2.29861       -0.75225
C         -2.15770       -0.41368        1.38752
C          0.77059        1.63695        1.43513
C          3.39484        0.78931        0.69105
C          1.55199        1.71216       -1.36329
P          1.63820        0.66197        0.14452
P         -1.45392       -0.95837       -0.22687
C          1.47080       -2.05597        1.51296
O          1.85509       -2.35532        2.56675
C         -2.31099        1.67343       -0.95382
H         -2.51059        1.86423        0.10072
C         -1.64210        0.21813       -2.74595
H         -1.28366       -0.75273       -3.09929
C         -2.44927        2.72881       -1.85665
H         -2.76173        3.72253       -1.52946
C         -1.79308        1.25233       -3.66147
H         -1.59265        1.11156       -4.72517
C         -2.18443        2.50593       -3.19991
F         -2.29859        3.51241       -4.06543
H         -3.62703       -1.88390       -0.88752
H         -2.27297       -2.63145       -1.74734
C         -2.61957       -3.47557        0.21656
H         -3.08153       -3.16465        1.16871
H         -1.57812       -3.74082        0.46332
C         -3.35474       -4.68814       -0.33232
H         -4.40351       -4.44998       -0.57224
H         -2.87997       -5.05533       -1.25656
H         -3.35758       -5.51756        0.39107
H         -1.78567       -1.15185        2.11678
H         -1.62766        0.51727        1.64349
C         -3.66530       -0.23414        1.51984
H         -4.16702       -1.20971        1.41152
H         -4.05178        0.38862        0.69639
C         -4.04472        0.38760        2.85657
H         -3.70241       -0.23813        3.69623
H         -3.58070        1.37935        2.98331
H         -5.13415        0.51074        2.95330
C         -0.02189        2.75482        1.15112
H         -0.06886        3.15649        0.13866
C          0.78589        1.14811        2.75164
H          1.36699        0.25638        2.99869
C         -0.79870        3.35768        2.14043
H         -1.43038        4.22137        1.92402
C          0.02725        1.74612        3.75118
H          0.02369        1.36227        4.77280
C         -0.76941        2.83941        3.42732
F         -1.52991        3.39342        4.36952
H          3.65733        1.85045        0.83863
H          3.43651        0.30669        1.68188
C          4.35734        0.09516       -0.26197
H          4.32821        0.59223       -1.24759
H          3.99119       -0.93235       -0.42911
C          5.78646        0.07096        0.25628
H          6.17620        1.08914        0.41650
H          5.84895       -0.46217        1.21825
H          6.46073       -0.43672       -0.45014
H          1.92871        1.06951       -2.17535
H          0.47727        1.83402       -1.57964
C          2.27564        3.05284       -1.36140
H          3.36433        2.88250       -1.32339
H          2.03314        3.62020       -0.44771
C          1.92999        3.88381       -2.58862
H          2.19420        3.35167       -3.51630
H          0.84954        4.09716       -2.63419
H          2.46395        4.84604       -2.59083
