82
Cat311.ts34.5.log	Energy: -2952592.7741957
C         -0.74594       -3.16062       -1.58239
H         -0.70072       -4.09825       -1.02215
H         -1.73107       -2.91923       -1.99274
C          0.41300       -2.79186       -2.34832
H          1.33433       -3.37508       -2.26329
H          0.25914       -2.38555       -3.35435
H          0.63194       -1.25877       -2.03749
Ir         0.18354       -1.57171       -0.44437
C         -1.45592        1.62362       -0.81214
O         -2.80731       -0.59317       -1.56782
O         -2.46335       -0.01711        0.92406
C          1.99190        0.32500        1.95416
O          3.42569       -0.74954        0.03729
O          1.90147        1.20627       -0.60785
P          1.85246       -0.22868        0.24113
P         -1.58559       -0.16111       -0.49950
C          0.26529       -2.62928        1.14427
O          0.28811       -3.26031        2.10562
C         -2.15169        2.58949       -0.07536
H         -2.79356        2.27708        0.74922
C         -0.63932        2.02542       -1.87611
H         -0.07235        1.27488       -2.43162
C         -2.03281        3.93879       -0.39563
H         -2.56652        4.70966        0.16306
C         -0.52222        3.36886       -2.21257
H          0.11610        3.70359       -3.03169
C         -1.22216        4.30864       -1.46335
F         -1.10701        5.59568       -1.77129
C         -3.91409        0.19392       -1.75907
C         -4.99746        0.11730       -0.88358
H         -4.96319       -0.57368       -0.04005
C         -3.94958        1.06833       -2.84545
H         -3.09190        1.11498       -3.51815
C         -6.11488        0.92102       -1.09171
H         -6.96931        0.87020       -0.41510
C         -5.06370        1.87335       -3.05675
H         -5.10119        2.56309       -3.90122
C         -6.14105        1.79879       -2.17440
Cl        -7.52817        2.80551       -2.42878
C         -2.70585       -1.07565        1.74901
C         -3.05251       -2.33774        1.26011
H         -3.13416       -2.50136        0.18482
C         -2.60712       -0.86097        3.12381
H         -2.35029        0.13591        3.48687
C         -3.27374       -3.38597        2.14819
H         -3.53255       -4.37880        1.77747
C         -2.83460       -1.90548        4.01283
H         -2.75338       -1.74870        5.08939
C         -3.15885       -3.16878        3.51964
Cl        -3.42580       -4.47699        4.62216
C          0.80396        0.53112        2.66458
H         -0.15267        0.28766        2.19689
C          3.22186        0.62092        2.55619
H          4.14836        0.44890        2.00668
C          0.83554        1.04115        3.95760
H         -0.07630        1.20629        4.53385
C          3.26318        1.12964        3.84862
H          4.20724        1.37021        4.34027
C          2.06746        1.33702        4.52957
F          2.10490        1.82550        5.76367
C          3.73680       -1.54705       -1.03115
C          4.09383       -2.87351       -0.79682
H          4.11248       -3.24246        0.22983
C          3.68002       -1.05113       -2.33414
H          3.37785       -0.01597       -2.50247
C          4.40557       -3.70790       -1.86565
H          4.68489       -4.74900       -1.69675
C          3.98694       -1.88397       -3.40661
H          3.94478       -1.51093       -4.43107
C          4.34713       -3.20945       -3.16755
Cl         4.72035       -4.24986       -4.50106
C          2.55258        2.32398       -0.15616
C          3.92380        2.47776       -0.35568
H          4.48750        1.68961       -0.85722
C          1.81563        3.31472        0.49258
H          0.74335        3.17073        0.63732
C          4.56351        3.62751        0.10030
H          5.63620        3.76304       -0.04612
C          2.45140        4.46424        0.94793
H          1.88796        5.24721        1.45752
C          3.82465        4.61370        0.75227
Cl         4.62067        6.04155        1.32483
