84
Cat388.ts34.5.log	Energy: -1784341.6847797
C         -0.65343       -2.76492       -1.83499
H         -0.43294       -3.76411       -1.44882
H         -1.68082       -2.65170       -2.19932
C          0.39780       -2.09341       -2.55835
H          1.39811       -2.53647       -2.59780
H          0.13312       -1.59598       -3.50067
H          0.39201       -0.66078       -2.03031
Ir         0.08140       -1.26597       -0.47752
C         -1.93116        1.70024       -1.03509
C         -3.44993       -0.73237       -0.79936
C         -2.36680        0.37337        1.49673
C          2.28169        0.08765        1.97289
C          3.49702       -0.91726       -0.44815
C          2.22982        1.63756       -0.45816
P          1.97203       -0.06634        0.16545
P         -1.86650        0.03470       -0.24814
C          0.23523       -2.43837        0.98858
O          0.33549       -3.15669        1.88939
C         -1.86295        2.85730       -0.24547
H         -1.87347        2.76611        0.84132
C         -1.91130        1.82978       -2.44402
C         -1.97552        0.65089       -3.37289
H         -3.00767        0.46446       -3.70993
H         -1.62835       -0.27113       -2.88954
H         -1.36247        0.82735       -4.26912
C         -1.78195        4.12369       -0.81653
H         -1.72278        5.00564       -0.17481
C         -1.84416        3.11422       -2.99669
H         -1.83717        3.21409       -4.08618
C         -1.77977        4.25537       -2.20188
H         -1.72101        5.24318       -2.66498
C         -4.48559       -0.02352       -1.41860
H         -4.36098        1.03864       -1.64455
C         -3.64500       -2.08760       -0.50226
H         -2.84110       -2.64486       -0.01351
C         -5.68442       -0.65185       -1.74952
H         -6.49885       -0.11198       -2.23619
C         -4.84015       -2.72580       -0.81698
H         -5.00457       -3.78017       -0.58769
C         -5.84507       -1.99745       -1.44369
F         -6.98807       -2.60328       -1.75795
C         -1.57084       -0.06639        2.55557
H         -0.62770       -0.56853        2.33717
C         -3.58027        1.01483        1.79008
H         -4.23196        1.34977        0.97976
C         -1.95392        0.13551        3.87980
H         -1.33020       -0.20488        4.70823
C         -3.97532        1.23123        3.10460
H         -4.91565        1.72987        3.34637
C         -3.15196        0.78645        4.13600
F         -3.52947        0.98940        5.39588
C          3.11281       -0.85469        2.59339
H          3.64181       -1.59007        1.98463
C          1.59463        1.03855        2.76234
C          0.69826        2.09350        2.18475
H          0.19827        1.75006        1.27043
H          1.26616        2.99736        1.91355
H         -0.07498        2.38132        2.91002
C          3.27422       -0.87531        3.97503
H          3.92374       -1.62333        4.43491
C          1.77523        0.99753        4.15034
H          1.24245        1.72797        4.76571
C          2.60049        0.05677        4.75899
H          2.71365        0.05127        5.84568
C          3.48447       -2.31462       -0.55833
H          2.56605       -2.85135       -0.30502
C          4.66323       -0.23194       -0.81148
H          4.70124        0.85679       -0.75967
C          4.60519       -3.01555       -0.99304
H          4.60295       -4.10394       -1.07531
C          5.78806       -0.91763       -1.26214
H          6.69744       -0.39052       -1.55638
C          5.74655       -2.30395       -1.34220
F          6.81898       -2.96285       -1.77206
C          3.14639        2.50999        0.14640
H          3.70417        2.18726        1.02986
C          1.50328        2.08240       -1.56498
H          0.76266        1.41894       -2.01632
C          3.33832        3.79599       -0.34837
H          4.04251        4.48986        0.11429
C          1.68550        3.36513       -2.07299
H          1.10901        3.72581       -2.92556
C          2.60241        4.20534       -1.45614
F          2.77592        5.43754       -1.92757
