94
Cat329.ts34.5.log	Energy: -2349981.6356582
C         -0.85319       -0.33915       -3.64370
H         -0.59247       -1.22332       -4.23243
H         -1.92068       -0.09511       -3.65173
C          0.08389        0.75547       -3.65775
H          1.04678        0.64019       -4.16455
H         -0.32225        1.76925       -3.76237
H          0.20328        1.19469       -2.16326
Ir         0.11040       -0.43351       -1.72490
C         -1.50847        1.48067        0.82527
C         -3.24178        0.69309       -1.30528
C         -2.45619       -1.21878        0.62249
C          1.69345       -1.15366        1.27347
C          3.53609       -0.70223       -0.85560
C          2.26580        1.53999        0.32126
P          1.89274       -0.15898       -0.25252
P         -1.74874        0.12616       -0.40310
C          0.41991       -2.28959       -1.79819
O          0.60379       -3.43264       -1.81260
C         -1.86402        1.37388        2.17518
H         -2.36299        0.47262        2.53684
C         -0.86400        2.65007        0.39879
H         -0.55102        2.73740       -0.64406
C         -1.56055        2.39033        3.07967
H         -1.81806        2.29365        4.13581
C         -0.58329        3.68708        1.28078
H         -0.07648        4.59030        0.93945
C         -0.91884        3.53962        2.62508
Cl        -0.51416        4.79667        3.75218
C         -3.73134        2.00625       -1.27751
H         -3.25408        2.75495       -0.64188
C         -3.89712       -0.23587       -2.12204
H         -3.53446       -1.26722       -2.15939
C         -4.83294        2.37442       -2.03807
H         -5.22013        3.39494       -2.01600
C         -5.00911        0.11779       -2.88260
H         -5.49322       -0.63920       -3.50007
C         -5.48336        1.43520       -2.84808
O         -6.54499        1.88106       -3.54929
C         -7.23041        0.98511       -4.37739
H         -7.66411        0.14522       -3.80593
H         -8.04481        1.55054       -4.84795
H         -6.57837        0.57451       -5.16870
C         -1.68030       -2.33747        0.95454
H         -0.66866       -2.42101        0.55423
C         -3.76006       -1.14482        1.12578
H         -4.39266       -0.29128        0.86810
C         -2.17785       -3.33467        1.77891
H         -1.57054       -4.19895        2.05286
C         -4.27694       -2.14220        1.94996
H         -5.29878       -2.05188        2.31933
C         -3.48033       -3.24527        2.28718
O         -3.88401       -4.25709        3.07754
C         -5.17508       -4.22333        3.61652
H         -5.94994       -4.22329        2.82954
H         -5.28672       -5.13092        4.22316
H         -5.32779       -3.34141        4.26364
C          2.18463       -2.46437        1.31356
H          2.82054       -2.83325        0.50566
C          0.86687       -0.71471        2.31611
H          0.43928        0.28803        2.29101
C          1.84996       -3.32042        2.35986
H          2.21876       -4.34714        2.37963
C          0.54058       -1.55388        3.37484
H         -0.11601       -1.21099        4.17586
C          1.02605       -2.86006        3.38472
Cl         0.56746       -3.93361        4.66450
C          4.67967       -0.57553       -0.04814
H          4.59478       -0.14907        0.95502
C          3.67876       -1.23545       -2.13417
H          2.78654       -1.32476       -2.76185
C          5.91908       -0.98371       -0.50672
H          6.81496       -0.89280        0.11034
C          4.92326       -1.65031       -2.61158
H          4.99649       -2.06622       -3.61658
C          6.05202       -1.52756       -1.79600
O          7.29501       -1.89654       -2.15563
C          7.49506       -2.44768       -3.42756
H          7.22016       -1.73974       -4.22917
H          8.56551       -2.67545       -3.50691
H          6.92003       -3.38017       -3.56554
C          2.28801        2.55568       -0.64871
H          2.07849        2.30344       -1.69178
C          2.55910        1.88709        1.64005
H          2.58540        1.12187        2.41759
C          2.55474        3.86903       -0.30615
H          2.56625        4.66259       -1.05581
C          2.80487        3.21132        2.00607
H          2.99245        3.44587        3.05369
C          2.78849        4.21536        1.03428
O          2.96979        5.52380        1.28711
C          3.13593        5.93611        2.61814
H          4.04859        5.50746        3.06793
H          3.23200        7.02889        2.59722
H          2.26400        5.66166        3.23602
