102
Cat318.ts34.5.log	Energy: -1807774.4919777
C          1.97902        0.25517       -3.08776
H          1.57476        0.50783       -4.07185
H          2.86389        0.83810       -2.80861
C          1.93393       -1.12712       -2.69010
H          1.41848       -1.85560       -3.32088
H          2.81560       -1.55613       -2.19922
H          1.40625       -1.12286       -1.18527
Ir         0.37669        0.11967       -1.64451
C          3.35115        1.26223       -0.14750
C          1.47850        3.35386       -0.67594
C          1.16981        1.78031        1.64142
C         -2.35084       -0.07499        0.66689
C         -2.57387       -1.70873       -1.67415
C         -0.80032       -2.47315        0.52064
P         -1.28818       -1.00313       -0.50503
P          1.52767        1.55112       -0.18458
C         -0.90657        0.88098       -2.79412
O         -1.71487        1.29941       -3.51405
C          3.79604       -0.06241       -0.01702
H          3.05887       -0.86520        0.05731
C          4.31659        2.27284       -0.25037
H          4.02198        3.31689       -0.36246
C          5.15189       -0.37073        0.02566
H          5.50102       -1.39879        0.12851
C          5.67903        1.98006       -0.21812
H          6.43384        2.76382       -0.30447
C          6.07977        0.65857       -0.07641
F          7.37910        0.36994       -0.04475
H          2.14618        3.91959       -0.00773
H          1.89724        3.38772       -1.69311
C          0.10877        3.95884       -0.64436
C         -0.72120        3.91016       -1.76920
H         -0.35588        3.45127       -2.68800
C         -0.37358        4.57682        0.51563
H          0.27523        4.64293        1.39420
C         -2.00515        4.44473       -1.71907
H         -2.64513        4.38966       -2.60255
C         -1.65693        5.12908        0.58253
C         -2.15500        5.75472        1.85375
H         -2.58011        4.99356        2.53084
H         -1.34376        6.25541        2.40215
H         -2.94404        6.49482        1.65778
C         -2.47131        5.04972       -0.55325
H         -3.47789        5.47673       -0.52604
H          1.80066        2.62011        1.97591
H          0.12069        2.11006        1.68515
C          1.37867        0.59478        2.53058
C          0.28833       -0.13118        3.02145
H         -0.72428        0.17132        2.74828
C          2.66666        0.20852        2.92331
H          3.52509        0.78753        2.57471
C          0.49009       -1.22554        3.86007
H         -0.37048       -1.78303        4.23886
C          2.88864       -0.89303        3.75510
C          4.28372       -1.26496        4.16788
H          4.57272       -0.74318        5.09556
H          4.37449       -2.34412        4.35933
H          5.01737       -0.98759        3.39651
C          1.77978       -1.61423        4.21496
H          1.93008       -2.48055        4.86492
C         -2.47126        1.30928        0.49955
H         -1.90279        1.80699       -0.29151
C         -3.07454       -0.69753        1.69505
H         -3.01930       -1.77805        1.83800
C         -3.29544        2.06009        1.33437
H         -3.39986        3.13646        1.19871
C         -3.88301        0.04478        2.55119
H         -4.44363       -0.42639        3.36056
C         -3.98423        1.41765        2.35428
F         -4.76211        2.13385        3.16493
H         -2.87679       -0.85317       -2.29529
H         -2.01545       -2.39292       -2.33052
C         -3.75389       -2.36384       -1.03469
C         -3.76817       -3.73742       -0.75389
H         -2.93392       -4.36712       -1.07485
C         -4.85318       -1.59344       -0.64044
H         -4.85057       -0.52135       -0.85851
C         -4.84523       -4.30640       -0.07956
H         -4.84954       -5.37884        0.13020
C         -5.93957       -2.14545        0.04501
C         -7.07127       -1.26762        0.49279
H         -6.73235       -0.56520        1.27240
H         -7.46076       -0.66012       -0.33852
H         -7.90309       -1.85521        0.90570
C         -5.91999       -3.51577        0.32455
H         -6.75989       -3.96929        0.85783
H         -0.58654       -2.07373        1.52047
H         -1.67836       -3.13327        0.60243
C          0.39469       -3.21991        0.01780
C          0.34322       -4.00666       -1.13824
H         -0.59287       -4.10314       -1.69300
C          1.60939       -3.11530        0.70348
H          1.65481       -2.49962        1.60620
C          1.48548       -4.65843       -1.59508
H          1.43907       -5.26161       -2.50510
C          2.76059       -3.78288        0.27140
C          4.02619       -3.71237        1.07590
H          4.91885       -3.80100        0.43902
H          4.08896       -2.77385        1.64418
H          4.06848       -4.53637        1.80783
C          2.68690       -4.54739       -0.89801
H          3.57749       -5.06767       -1.26134
