78
Cat331.ts34.5.log	Energy: -3215996.1935819
C         -0.99277        0.26351       -3.67935
H         -0.82315       -0.54025       -4.40145
H         -2.03832        0.58128       -3.61001
C          0.02710        1.27447       -3.57378
H          0.96562        1.16100       -4.12429
H         -0.29064        2.32289       -3.51922
H          0.18739        1.49085       -2.01931
Ir         0.01373       -0.16865       -1.82845
C         -1.59584        1.80507        0.60240
C         -3.45365        0.40674       -1.08985
C         -2.13539       -1.03523        0.89057
C          1.62423       -1.45433        1.01769
C          3.41700       -0.61482       -1.03591
C          2.16217        1.34771        0.61768
P          1.77794       -0.19618       -0.30710
P         -1.76851        0.25817       -0.36532
C          0.31137       -1.98405       -2.25646
O          0.49668       -3.09936       -2.50323
C         -1.18562        1.83795        1.93919
H         -1.09607        0.90865        2.50369
C         -1.70237        3.02263       -0.08874
H         -1.99918        3.02415       -1.14155
C         -0.87882        3.04165        2.57066
H         -0.53781        3.05770        3.60694
C         -1.42347        4.23189        0.53436
H         -1.51324        5.17521       -0.00707
C         -0.99887        4.23442        1.86451
Cl        -0.57984        5.73055        2.62345
C         -3.81193       -0.54837       -2.05060
H         -3.07165       -1.28840       -2.36803
C         -4.40707        1.34907       -0.68965
H         -4.15937        2.09644        0.06728
C         -5.08818       -0.56684       -2.60147
H         -5.36619       -1.31312       -3.34733
C         -5.68558        1.34900       -1.24244
H         -6.42849        2.08586       -0.93268
C         -6.01943        0.38968       -2.19646
Cl        -7.60635        0.38537       -2.88685
C         -3.00237       -0.79764        1.96644
H         -3.45700        0.18720        2.09979
C         -1.61467       -2.31943        0.71742
H         -0.94682       -2.51206       -0.12383
C         -3.30139       -1.80553        2.87594
H         -3.96591       -1.62001        3.72134
C         -1.92480       -3.34518        1.60577
H         -1.50886       -4.34460        1.47363
C         -2.75383       -3.07693        2.69153
Cl        -3.11205       -4.33029        3.82800
C          1.93835       -2.78917        0.73068
H          2.37940       -3.05365       -0.23334
C          1.04887       -1.15269        2.25746
H          0.78893       -0.12131        2.49915
C          1.68180       -3.79664        1.65517
H          1.91947       -4.83677        1.42656
C          0.79288       -2.14938        3.19301
H          0.33107       -1.91220        4.15251
C          1.10446       -3.47099        2.88216
Cl         0.73340       -4.72506        4.01293
C          3.56553       -0.59301       -2.42408
H          2.68566       -0.37385       -3.03678
C          4.52728       -0.92798       -0.24055
H          4.43340       -0.97139        0.84663
C          4.79578       -0.86643       -3.01720
H          4.91145       -0.85253       -4.10203
C          5.75988       -1.20797       -0.81764
H          6.62479       -1.45807       -0.20131
C          5.88730       -1.17143       -2.20786
Cl         7.41987       -1.51971       -2.93040
C          2.91736        1.33895        1.79951
H          3.25976        0.39608        2.23005
C          1.74361        2.57878        0.10742
H          1.14287        2.59970       -0.80363
C          3.22845        2.52171        2.46055
H          3.80748        2.50991        3.38525
C          2.05762        3.77231        0.74955
H          1.71656        4.72881        0.35204
C          2.79464        3.73712        1.93038
Cl         3.16964        5.20923        2.75415
