100
Cat397.ts34.5.log	Energy: -1822725.8229975
C          0.95411        3.05623       -0.54760
H          1.01875        3.73890        0.30332
H          1.89501        2.94272       -1.09378
C         -0.27826        3.01963       -1.27984
H         -1.14246        3.58772       -0.92612
H         -0.22548        2.96560       -2.37391
H         -0.63670        1.50958       -1.44597
Ir        -0.01047        1.22015        0.09373
C          1.36111       -1.44668       -2.03954
O          3.06236        0.29180       -1.11775
O          1.93656       -1.29862        0.59459
C         -2.06155       -0.93479        2.04733
O         -3.27551        1.02090        0.80068
O         -2.39944       -0.86635       -0.70549
P         -1.90886        0.08727        0.54932
P          1.55359       -0.26649       -0.65122
C          0.34798        1.49784        1.93488
O          0.60688        1.63537        3.05070
C          1.38937       -2.82412       -1.78707
H          1.56473       -3.18174       -0.77220
C          1.12459       -0.97960       -3.34938
C          1.00839        0.47979       -3.67875
H          1.70404        1.09445       -3.09292
H         -0.01144        0.83505       -3.45907
H          1.20514        0.65640       -4.74535
C          1.20977       -3.74576       -2.81456
H          1.24217       -4.81560       -2.59716
C          0.95785       -1.92385       -4.36822
H          0.78853       -1.56971       -5.38886
C          0.99965       -3.29194       -4.11348
H          0.86420       -4.00296       -4.93193
C          3.78334        1.24526       -0.45199
C          3.71501        1.40329        0.93148
H          3.06833        0.75589        1.52226
C          4.62887        2.04641       -1.23727
C          4.68510        1.85098       -2.72136
H          4.81881        0.78994       -2.97975
H          3.74764        2.17464       -3.20337
H          5.50686        2.43000       -3.16416
C          4.47523        2.39262        1.55099
H          4.40951        2.51719        2.63409
C          5.38942        3.02006       -0.58661
H          6.05485        3.64963       -1.18387
C          5.31343        3.20553        0.79366
H          5.91552        3.97910        1.27517
C          3.11443       -1.90683        0.94150
C          4.11114       -2.24026        0.02510
H          3.98514       -1.99776       -1.02921
C          3.25170       -2.18850        2.31235
C          2.17070       -1.79680        3.27201
H          2.02797       -0.70480        3.29837
H          1.19646       -2.21661        2.98086
H          2.40753       -2.13551        4.28966
C          5.27137       -2.86855        0.47458
H          6.05387       -3.12417       -0.24356
C          4.42260       -2.82609        2.72735
H          4.54482       -3.05388        3.78984
C          5.42971       -3.16583        1.82472
H          6.33772       -3.65884        2.17870
C         -2.56020       -0.31781        3.20272
H         -2.93665        0.70345        3.14019
C         -1.55977       -2.25177        2.10663
C         -1.01370       -2.97014        0.91035
H         -0.41581       -2.30600        0.27585
H         -1.82805       -3.37606        0.28869
H         -0.37612       -3.80940        1.22073
C         -2.58114       -0.99222        4.41855
H         -2.97058       -0.49637        5.31029
C         -1.59935       -2.91010        3.34144
H         -1.21837       -3.93327        3.39942
C         -2.09991       -2.29699        4.48582
H         -2.10839       -2.83977        5.43406
C         -3.47895        2.15768        0.05969
C         -3.76611        2.06325       -1.30072
H         -3.82093        1.07659       -1.76354
C         -3.40055        3.39783        0.71047
C         -3.08127        3.46696        2.17142
H         -3.83455        2.92796        2.76749
H         -2.10549        3.00215        2.38177
H         -3.04967        4.50802        2.51966
C         -3.97686        3.22267       -2.04410
H         -4.20168        3.14933       -3.11058
C         -3.62306        4.54456       -0.05808
H         -3.56620        5.52158        0.42950
C         -3.90377        4.46696       -1.42210
H         -4.06815        5.38096       -1.99706
C         -3.49199       -1.68771       -0.80580
C         -4.54623       -1.69283        0.10634
H         -4.54471       -1.00302        0.94881
C         -3.48284       -2.53749       -1.92595
C         -2.33948       -2.48126       -2.88957
H         -2.23292       -1.47411       -3.32205
H         -1.38255       -2.69665       -2.39122
H         -2.47416       -3.20060       -3.70831
C         -5.60594       -2.57973       -0.08224
H         -6.43024       -2.58619        0.63451
C         -4.56072       -3.40962       -2.08666
H         -4.56725       -4.07920       -2.95111
C         -5.61568       -3.44146       -1.17449
H         -6.44592       -4.13543       -1.32267
