108
Cat385.ts34.5.log	Energy: -1544448.1351344
C         -1.00051        0.41016       -3.32192
H         -0.88375       -0.37882       -4.07067
H         -2.02622        0.79344       -3.26565
C          0.07970        1.36689       -3.20823
H          0.99595        1.20347       -3.78313
H         -0.17974        2.43323       -3.16576
H          0.23894        1.56557       -1.67586
Ir         0.00257       -0.09100       -1.49671
C         -1.86047        1.63657        1.11651
C         -3.46810        0.27792       -0.88517
C         -1.96870       -1.26382        1.21138
C          1.87895       -1.55394        1.17725
C          3.40468       -0.36763       -0.95024
C          2.02692        1.43855        1.02845
P          1.80922       -0.10525        0.00783
P         -1.82459        0.15536       -0.00140
C          0.30541       -1.85525       -2.07523
O          0.48186       -2.92744       -2.48275
C         -1.68931        1.49940        2.50357
H         -1.61562        0.50722        2.94552
C         -1.96906        2.94946        0.59244
C         -2.15413        3.23067       -0.86956
H         -3.21635        3.17520       -1.15817
H         -1.60589        2.50292       -1.48258
H         -1.79911        4.24000       -1.12052
C         -1.62713        2.59594        3.35969
H         -1.49384        2.43762        4.43259
C         -1.91301        4.03930        1.46889
H         -1.99510        5.04634        1.05029
C         -1.74564        3.88049        2.84098
H         -1.70237        4.75415        3.49531
H         -3.23652        1.00609       -1.68020
C         -4.67368        0.83170       -0.12455
H         -4.41362        1.76694        0.39487
H         -4.98673        0.12402        0.65797
C         -5.84000        1.06047       -1.08363
H         -6.71451        1.44244       -0.53184
H         -5.56314        1.84829       -1.80863
C         -6.20225       -0.21290       -1.84104
H         -7.02010       -0.01757       -2.55374
H         -6.58878       -0.95937       -1.12314
C         -4.99317       -0.79826       -2.56319
H         -4.67477       -0.10715       -3.36474
H         -5.26211       -1.74456       -3.06010
C         -3.82490       -1.02189       -1.60788
H         -4.10915       -1.79082       -0.86966
H         -2.94375       -1.40639       -2.14553
H         -1.12662       -1.06049        1.89832
C         -1.65996       -2.63316        0.60084
H         -0.72523       -2.57969        0.03055
H         -2.44798       -2.91257       -0.11742
C         -1.55337       -3.69865        1.68632
H         -1.35328       -4.67901        1.22459
H         -0.67603       -3.47301        2.31572
C         -2.80028       -3.76194        2.55941
H         -2.67062       -4.50093        3.36716
H         -3.65534       -4.11210        1.95259
C         -3.13539       -2.39225        3.13724
H         -2.33939       -2.08655        3.84176
H         -4.06860       -2.43442        3.72271
C         -3.25738       -1.34398        2.03453
H         -4.08535       -1.63340        1.36637
H         -3.53138       -0.36725        2.45964
C          2.13966       -2.76360        0.50550
H          2.25422       -2.76045       -0.57894
C          1.67109       -1.60786        2.57646
C          1.28658       -0.44837        3.45358
H          0.44417        0.12327        3.04644
H          2.11383        0.25840        3.60827
H          0.98427       -0.81527        4.44386
C          2.25389       -3.98053        1.16356
H          2.45736       -4.88843        0.59173
C          1.80520       -2.84863        3.22293
H          1.65256       -2.88140        4.30513
C          2.10369       -4.02293        2.54600
H          2.19454       -4.96476        3.09173
H          3.09971       -1.19226       -1.61911
C          4.66861       -0.82176       -0.21684
H          4.45277       -1.66918        0.45003
H          5.05247       -0.01104        0.42063
C          5.74719       -1.20797       -1.22690
H          6.66137       -1.52495       -0.69889
H          5.40251       -2.08487       -1.80448
C          6.05675       -0.06249       -2.18492
H          6.80708       -0.37441       -2.92962
H          6.51214        0.76861       -1.61569
C          4.79584        0.44245       -2.87792
H          4.40427       -0.34450       -3.54736
H          5.02937        1.30829       -3.51903
C          3.71241        0.81454       -1.87027
H          4.06009        1.67262       -1.26933
H          2.79371        1.13280       -2.38587
H          1.23133        1.34248        1.78255
C          1.70772        2.73672        0.28218
H          0.71918        2.64838       -0.18938
H          2.43479        2.90357       -0.52948
C          1.71953        3.92247        1.24145
H          1.50502        4.85095        0.68731
H          0.89428        3.79788        1.96314
C          3.03758        4.04178        1.99593
H          2.99859        4.87974        2.71087
H          3.84894        4.27824        1.28340
C          3.37319        2.74150        2.71579
H          2.62614        2.56224        3.51067
H          4.35172        2.81575        3.21777
C          3.37284        1.56377        1.74551
H          4.16018        1.73434        0.99332
H          3.64149        0.62831        2.26026
