102
Cat347.ts34.5.log	Energy: -2259924.5100795
C          0.08363       -3.69120       -2.14353
H         -0.27982       -3.81933       -3.16687
H          1.14028       -3.95732       -2.02367
C         -0.82564       -4.02486       -1.07614
H         -1.86001       -4.29379       -1.30562
H         -0.43794       -4.58611       -0.21757
H         -0.69308       -2.83255       -0.04340
Ir        -0.58834       -1.79802       -1.37022
C          1.45633        0.14883        0.74844
C          2.57762       -2.41563        0.20532
C          2.61662       -0.56185       -2.01687
C         -1.56284        1.37239       -0.07901
C         -3.67721       -0.10414       -1.24024
C         -2.63640       -0.85264        1.39605
P         -2.07267       -0.37613       -0.30917
P          1.50405       -1.10408       -0.60040
C         -0.97936       -1.05007       -3.05493
O         -1.18380       -0.53372       -4.07367
C          1.73203        1.51736        0.64382
H          2.10068        1.94479       -0.28391
C          0.93800       -0.31842        1.96789
H          0.67475       -1.37401        2.07029
C          1.51154        2.38155        1.71486
H          1.70859        3.44913        1.60613
C          0.71842        0.52824        3.04701
H          0.31078        0.14844        3.98572
C          1.00290        1.88710        2.91013
Cl         0.66402        2.97216        4.21798
H          2.04623       -2.71742        1.11997
H          2.53837       -3.27912       -0.47650
C          3.99423       -2.01806        0.48242
C          5.02932       -2.43766       -0.36429
H          4.80846       -3.11753       -1.19206
C          4.31318       -1.16722        1.54904
H          3.51899       -0.83133        2.21886
C          6.33445       -1.99518       -0.15966
H          7.13095       -2.32436       -0.83125
C          5.61504       -0.70690        1.76437
C          5.91260        0.21402        2.91194
H          5.07706        0.90614        3.09342
H          6.07547       -0.35375        3.84318
H          6.81874        0.80854        2.72698
C          6.62561       -1.12869        0.89118
H          7.64960       -0.77470        1.03871
H          3.42751       -1.30454       -2.04703
H          1.99162       -0.71878       -2.90500
C          3.19314        0.81746       -2.02166
C          2.56475        1.84323       -2.73770
H          1.68476        1.61503       -3.34543
C          4.33610        1.11746       -1.27376
H          4.83499        0.31917       -0.72078
C          3.05182        3.14648       -2.66338
H          2.55804        3.94556       -3.22237
C          4.83072        2.42085       -1.18088
C          6.01608        2.71823       -0.30926
H          6.55647        3.61425       -0.64693
H          5.69625        2.89667        0.73130
H          6.71800        1.87204       -0.28937
C          4.16830        3.43694       -1.88115
H          4.53816        4.46416       -1.82133
C         -1.89267        2.13953        1.04200
H         -2.42984        1.69925        1.88293
C         -0.88545        1.98884       -1.13829
H         -0.60115        1.39457       -2.00997
C         -1.55320        3.48802        1.11197
H         -1.79024        4.07746        1.99863
C         -0.56026        3.33969       -1.09465
H         -0.02586        3.81492       -1.91823
C         -0.89488        4.07988        0.03796
Cl        -0.46721        5.75790        0.12066
H         -3.35534        0.18602       -2.25185
H         -4.13831       -1.09861       -1.33109
C         -4.59891        0.91029       -0.64073
C         -5.60665        0.54115        0.26138
H         -5.78486       -0.51557        0.47743
C         -4.42300        2.27066       -0.91739
H         -3.64380        2.57036       -1.62366
C         -6.39143        1.51282        0.87678
H         -7.17763        1.21378        1.57435
C         -5.19186        3.26141       -0.29964
C         -4.92753        4.70989       -0.59174
H         -3.92646        5.00518       -0.23672
H         -4.95482        4.91082       -1.67397
H         -5.66551        5.36303       -0.10548
C         -6.18051        2.86377        0.60624
H         -6.79554        3.62095        1.10007
H         -1.85897       -0.47791        2.07698
H         -3.56626       -0.30251        1.61223
C         -2.81144       -2.32875        1.57684
C         -3.87510       -3.02201        0.98573
H         -4.63053       -2.47912        0.41442
C         -1.87029       -3.05943        2.30621
H         -1.04428       -2.52505        2.78403
C         -3.97427       -4.40325        1.11724
H         -4.80887       -4.93359        0.65239
C         -1.94694       -4.45018        2.44367
C         -0.88849       -5.19508        3.20454
H         -0.70226       -4.73686        4.18802
H         -1.16938       -6.24505        3.36610
H          0.06977       -5.18755        2.65855
C         -3.01478       -5.11542        1.83573
H         -3.09789       -6.20153        1.92871
