80
Cat381.ts34.5.log	Energy: -1251644.5503585
C         -1.17498       -3.02754       -1.13366
H         -0.69022       -3.97199       -0.86933
H         -2.24946       -3.02773       -0.91335
C         -0.74115       -2.39562       -2.36275
H          0.10867       -2.82122       -2.90443
H         -1.51395       -2.03369       -3.05441
H         -0.65380       -0.89899       -2.00183
Ir         0.00015       -1.34960       -0.51188
C         -2.40862        1.30165        0.03177
C         -3.10692       -1.28637        1.20609
C         -0.95924        0.44917        2.40327
C          2.49147        0.81636        0.76620
C          3.05156       -0.32736       -1.83492
C          1.03225        1.90410       -1.62647
P          1.61707        0.33314       -0.80332
P         -1.63042       -0.20838        0.77761
C          1.11595       -2.44342        0.53726
O          1.76677       -3.16279        1.17258
C         -2.12651        2.58239        0.53460
H         -1.55165        2.69167        1.45268
C         -3.19286        1.21487       -1.14617
C         -3.57383       -0.09320       -1.77293
H         -4.45237       -0.53600       -1.27665
H         -2.75100       -0.81679       -1.69760
H         -3.82854        0.04018       -2.83351
C         -2.56703        3.74407       -0.09412
H         -2.31752        4.71829        0.33335
C         -3.63294        2.39274       -1.76043
H         -4.22958        2.30992       -2.67332
C         -3.32616        3.65224       -1.25537
H         -3.68012        4.55150       -1.76470
H         -3.32497       -1.74272        0.22887
C         -2.69407       -2.42697        2.12960
H         -3.48023       -3.19874        2.14823
H         -1.75951       -2.89795        1.78953
H         -2.55071       -2.08281        3.16465
C         -4.37792       -0.58779        1.67468
H         -4.64234        0.26940        1.03816
H         -5.22084       -1.29854        1.64937
H         -4.29454       -0.22094        2.70608
H         -0.35208        1.30123        2.05737
C         -1.99576        0.95783        3.40192
H         -1.49704        1.54852        4.18790
H         -2.76980        1.58983        2.94536
H         -2.49971        0.11935        3.90463
C          0.02489       -0.49645        3.08246
H          0.84394       -0.77244        2.41010
H          0.46224        0.00744        3.95913
H         -0.45384       -1.42208        3.43099
C          3.31974       -0.21546        1.24731
H          3.43014       -1.13011        0.66429
C          2.34359        1.97397        1.56794
C          1.50337        3.17661        1.23412
H          0.46482        2.91692        0.99517
H          1.89925        3.73919        0.37725
H          1.47823        3.86317        2.09108
C          3.99127       -0.13897        2.45938
H          4.61392       -0.97406        2.78723
C          3.03033        2.02698        2.79271
H          2.90916        2.92148        3.40972
C          3.84513        0.99875        3.24615
H          4.35518        1.08484        4.20829
H          3.20328       -1.30610       -1.35061
C          2.60283       -0.62170       -3.26162
H          3.34610       -1.26174       -3.76288
H          1.63660       -1.14538       -3.27668
H          2.51135        0.29835       -3.85830
C          4.37453        0.43066       -1.80676
H          4.68204        0.70427       -0.78795
H          5.16691       -0.20628       -2.23299
H          4.33962        1.34767       -2.40951
H          0.43990        2.37190       -0.82892
C          2.14441        2.85981       -2.04647
H          1.72672        3.86209       -2.23560
H          2.93688        2.95755       -1.29098
H          2.61763        2.52704       -2.98198
C          0.05171        1.66478       -2.76957
H         -0.80055        1.06045       -2.43463
H         -0.34103        2.63413       -3.11522
H          0.51699        1.16307       -3.62940
