50
Cat320.ts34.5.log	Energy: -1581810.5643486
C         -4.02451       -1.15526       -0.36655
H         -4.83340       -0.47969       -0.65860
H         -3.93759       -2.03385       -1.01462
C         -3.81342       -1.34361        1.05062
H         -4.38555       -0.74021        1.76097
H         -3.65498       -2.36687        1.41268
H         -2.26275       -1.26466        1.23120
Ir        -2.24894       -0.02785        0.07290
C          0.88791       -1.60053       -0.62894
C         -1.31311       -3.01937       -1.68065
C         -0.52192       -0.60728       -2.92821
C          0.87859        1.50671        0.68804
C         -1.30411        2.84143        1.89640
C         -0.38816        0.39690        3.02666
P         -0.77373        1.15467        1.40713
P         -0.81032       -1.29966       -1.25593
C         -2.83733        1.55795       -0.75666
O         -3.14201        2.54615       -1.28063
C          2.04655       -1.21683       -1.31157
H          1.98199       -0.74070       -2.29096
C          1.02563       -2.19729        0.63245
H          0.12813       -2.48459        1.18880
C          3.30747       -1.40166       -0.74868
H          4.20451       -1.06263       -1.26954
C          2.27711       -2.40462        1.20082
H          2.38010       -2.86575        2.18472
C          3.41451       -1.98879        0.50793
Cl         4.97510       -2.15590        1.24421
H         -1.43855       -3.60160       -0.75645
H         -2.28098       -2.99085       -2.20233
H         -0.56700       -3.51234       -2.32164
H          0.10851       -1.25181       -3.56044
H         -1.50717       -0.48240       -3.39942
H         -0.06707        0.38872       -2.83702
C          0.91749        2.09097       -0.58574
H         -0.01921        2.32653       -1.09960
C          2.08567        1.19287        1.31771
H          2.09492        0.72584        2.30374
C          2.12736        2.35314       -1.21816
H          2.15659        2.80368       -2.21176
C          3.30586        1.43449        0.68986
H          4.24439        1.14819        1.16726
C          3.31768        2.00783       -0.57757
Cl         4.82845        2.24550       -1.39283
H         -1.49572        3.43445        0.99108
H         -2.24801        2.76154        2.45469
H         -0.53983        3.34344        2.50878
H          0.10427       -0.57256        2.87028
H          0.24728        1.04246        3.65127
H         -1.34327        0.21993        3.54083
