84
Cat389.ts34.5.log	Energy: -2688653.4330459
C         -0.57048       -3.15394       -1.15271
H         -0.41438       -4.03028       -0.51732
H         -1.56148       -3.12097       -1.61948
C          0.55598       -2.69374       -1.92569
H          1.54106       -3.14557       -1.77238
H          0.38321       -2.43662       -2.97890
H          0.55654       -1.17238       -1.76235
Ir         0.10484       -1.37701       -0.14283
C         -1.75164        1.38930       -1.57783
C         -3.37199       -0.88785       -0.88156
C         -2.43843        0.72988        1.15404
C          2.12182        0.52721        2.09318
C          3.51614       -1.03333        0.10589
C          2.30623        1.43405       -0.64515
P          1.96016       -0.06184        0.35753
P         -1.80860       -0.03300       -0.40681
C          0.11235       -2.16480        1.56892
O          0.12487       -2.64823        2.61920
C         -1.69696        2.70374       -1.09161
H         -1.79593        2.88491       -0.02083
C         -1.61749        1.16708       -2.96885
C         -1.65701       -0.20287       -3.58380
H         -2.66871       -0.45094       -3.94233
H         -1.37536       -0.98297       -2.86501
H         -0.97753       -0.26226       -4.44682
C         -1.51626        3.78795       -1.94491
H         -1.46690        4.79907       -1.53481
C         -1.45360        2.27400       -3.81008
H         -1.35726        2.10200       -4.88622
C         -1.40045        3.57399       -3.31492
H         -1.25863        4.41534       -3.99723
C         -3.63753       -2.12440       -0.28039
H         -2.89490       -2.55801        0.39515
C         -4.33063       -0.33826       -1.73950
H         -4.15221        0.63329       -2.20764
C         -4.82649       -2.80169       -0.52875
H         -5.03301       -3.76344       -0.05658
C         -5.52134       -1.01008       -2.00580
H         -6.26750       -0.58274       -2.67778
C         -5.76208       -2.24093       -1.39807
Cl        -7.23944       -3.08239       -1.72538
C         -3.63398        1.46370        1.17174
H         -4.19646        1.61799        0.24793
C         -1.76203        0.52857        2.35721
H         -0.83297       -0.04247        2.35554
C         -4.12483        2.00334        2.35424
H         -5.05266        2.57739        2.36653
C         -2.24323        1.05541        3.55364
H         -1.70148        0.89588        4.48722
C         -3.42108        1.79644        3.54320
Cl        -4.02720        2.46745        5.01944
C          2.87410       -0.24176        2.99167
H          3.43436       -1.10407        2.62601
C          1.39386        1.64197        2.56885
C          0.57698        2.53152        1.67971
H          0.16112        1.98533        0.82385
H          1.18504        3.35125        1.26572
H         -0.25688        2.97595        2.23997
C          2.91685        0.06936        4.34682
H          3.50636       -0.54867        5.02750
C          1.45441        1.93457        3.93696
H          0.88866        2.79267        4.31062
C          2.20155        1.16446        4.82288
H          2.22137        1.41920        5.88514
C          4.72667       -0.44977       -0.28644
H          4.78607        0.62217       -0.47941
C          3.48265       -2.41778        0.31661
H          2.53306       -2.88291        0.59588
C          5.87326       -1.22065       -0.45612
H          6.81217       -0.76212       -0.77054
C          4.62361       -3.19954        0.16490
H          4.59126       -4.27651        0.33748
C          5.81726       -2.59382       -0.22417
Cl         7.23964       -3.55655       -0.43305
C          3.16411        2.44571       -0.19186
H          3.62758        2.36585        0.79545
C          1.70557        1.57106       -1.89764
H          1.01135        0.80166       -2.24186
C          3.41435        3.57010       -0.97179
H          4.07406        4.36376       -0.61742
C          1.95003        2.68712       -2.69150
H          1.46539        2.79611       -3.66177
C          2.80111        3.68339       -2.22048
Cl         3.08771        5.08965       -3.18835
