96
Cat361.ts34.5.log	Energy: -1633975.2686629
C         -1.03755       -0.09932       -3.53305
H         -0.82987       -0.95256       -4.18531
H         -2.09921        0.16251       -3.47391
C         -0.07595        0.97423       -3.53440
H          0.85977        0.86580       -4.09112
H         -0.45425        2.00338       -3.57013
H          0.08579        1.33817       -2.01026
Ir         0.01501       -0.30635       -1.67135
C         -1.69988        1.76639        0.63066
C         -3.46979        0.15226       -0.96200
C         -2.08328       -1.06449        1.12075
C          1.72662       -1.21725        1.27151
C          3.44441       -0.49896       -0.89394
C          2.10696        1.54833        0.58362
P          1.79558       -0.09752       -0.17809
P         -1.78169        0.14933       -0.22806
C          0.42432       -2.12765       -1.94112
O          0.67893       -3.24740       -2.09443
C         -1.33749        1.90924        1.97213
H         -1.21016        1.02348        2.59673
C         -1.85518        2.93201       -0.13696
H         -2.11477        2.84937       -1.19654
C         -1.13516        3.17290        2.52697
H         -0.83771        3.25393        3.57618
C         -1.67807        4.18785        0.42734
H         -1.81776        5.07896       -0.19194
C         -1.30432        4.33397        1.77142
C         -1.06363        5.69352        2.35690
H         -1.89267        6.38267        2.13352
H         -0.94330        5.64713        3.44844
H         -0.14726        6.14419        1.94116
C         -3.78872       -0.91643       -1.81150
H         -3.01924       -1.65958       -2.04052
C         -4.46250        1.09278       -0.67475
H         -4.24992        1.92720       -0.00284
C         -5.06155       -1.03654       -2.35492
H         -5.28749       -1.88277       -3.01019
C         -5.73458        0.97216       -1.23339
H         -6.49636        1.72021       -0.99529
C         -6.05846       -0.08943       -2.08271
C         -7.42006       -0.20781       -2.70222
H         -8.14788        0.45042       -2.20698
H         -7.39425        0.06898       -3.76936
H         -7.79815       -1.23998       -2.64625
C         -3.02434       -0.82158        2.13211
H         -3.56978        0.12547        2.15477
C         -1.44179       -2.30171        1.09024
H         -0.71724       -2.50247        0.29969
C         -3.27965       -1.78110        3.10359
H         -4.01318       -1.57064        3.88747
C         -1.71744       -3.26896        2.05455
H         -1.20163       -4.23145        2.00525
C         -2.62769       -3.02338        3.08431
C         -2.89759       -4.04543        4.14955
H         -2.51158       -5.03480        3.86568
H         -2.41782       -3.76047        5.10090
H         -3.97533       -4.14405        4.35029
C          2.11102       -2.55605        1.13018
H          2.54300       -2.90392        0.18868
C          1.16529       -0.81074        2.48683
H          0.85107        0.22590        2.61787
C          1.94279       -3.45405        2.18024
H          2.25194       -4.49470        2.04734
C          1.00389       -1.71301        3.53290
H          0.55869       -1.37070        4.47124
C          1.38519       -3.05191        3.39956
C          1.15698       -4.03355        4.51012
H          1.26242       -3.56003        5.49724
H          0.13605       -4.44798        4.45617
H          1.85803       -4.87882        4.45635
C          3.58652       -0.55120       -2.28044
H          2.69506       -0.40640       -2.89824
C          4.57478       -0.72139       -0.09508
H          4.48840       -0.70998        0.99364
C          4.82935       -0.80638       -2.85859
H          4.91785       -0.84474       -3.94786
C          5.80925       -0.98117       -0.67580
H          6.67777       -1.15861       -0.03481
C          5.96115       -1.02495       -2.06984
C          7.30043       -1.31193       -2.68244
H          7.66109       -2.31330       -2.39719
H          7.25997       -1.26889       -3.77968
H          8.05741       -0.58793       -2.34161
C          2.92206        1.69956        1.71545
H          3.35502        0.82344        2.20197
C          1.57254        2.69690        0.00078
H          0.92566        2.59631       -0.87233
C          3.17535        2.95865        2.24542
H          3.80899        3.04855        3.13247
C          1.83825        3.95801        0.52771
H          1.40184        4.83835        0.04867
C          2.63628        4.11374        1.66287
C          2.88817        5.46556        2.26279
H          3.93521        5.57650        2.58253
H          2.66034        6.27176        1.55099
H          2.25879        5.62289        3.15469
