94
Cat300.ts34.5.log	Energy: -1897825.0559535
C         -0.79715       -0.67564       -3.42601
H         -0.54681       -1.61650       -3.92442
H         -1.85462       -0.40005       -3.49612
C          0.17624        0.38481       -3.50219
H          1.15250        0.19530       -3.95896
H         -0.19190        1.39636       -3.71421
H          0.26671        0.95595       -2.05468
Ir         0.10295       -0.62284       -1.47334
C         -1.50885        1.57029        0.84272
C         -3.22586        0.63633       -1.24671
C         -2.55074       -1.10075        0.85852
C          1.87862       -1.19443        1.50896
C          3.55064       -0.61864       -0.73986
C          2.16712        1.49957        0.49290
P          1.89694       -0.23047       -0.04944
P         -1.76319        0.11969       -0.26323
C          0.37046       -2.48407       -1.36991
O          0.52854       -3.62768       -1.28041
C         -1.80603        1.56301        2.21048
H         -2.25888        0.67920        2.66443
C         -0.92597        2.72272        0.29328
H         -0.64570        2.73047       -0.76288
C         -1.52278        2.66860        3.01313
H         -1.73189        2.66516        4.08448
C         -0.67763        3.84711        1.07034
H         -0.22617        4.74617        0.64877
C         -0.96800        3.79622        2.42815
F         -0.68104        4.85516        3.19392
C         -3.72388        1.94450       -1.31641
H         -3.26611        2.73726       -0.72148
C         -3.86107       -0.34979       -2.01086
H         -3.49357       -1.37929       -1.96877
C         -4.81162        2.25335       -2.12249
H         -5.20487        3.27039       -2.17655
C         -4.95859       -0.05584       -2.81621
H         -5.42645       -0.85617       -3.39001
C         -5.43975        1.25793       -2.88097
O         -6.48857        1.64872       -3.63278
C         -7.15206        0.69441       -4.41203
H         -7.59399       -0.10735       -3.79397
H         -7.95889        1.22156       -4.93698
H         -6.48154        0.23481       -5.15975
C         -1.86669       -2.25986        1.24514
H         -0.87095       -2.44775        0.84116
C         -3.84063       -0.89488        1.36179
H         -4.40423       -0.00807        1.05989
C         -2.43817       -3.17015        2.12157
H         -1.90601       -4.07341        2.42519
C         -4.43034       -1.80133        2.23957
H         -5.43840       -1.60833        2.60740
C         -3.72476       -2.94845        2.62954
O         -4.20477       -3.88288        3.47133
C         -5.49049       -3.72263        4.00103
H         -6.26123       -3.70036        3.21045
H         -5.67364       -4.58843        4.64990
H         -5.57538       -2.80131        4.60420
C          2.77146       -2.24526        1.74525
H          3.56172       -2.46168        1.02384
C          0.86034       -0.95217        2.44195
H          0.13314       -0.15920        2.25660
C          2.66088       -3.02991        2.89183
H          3.34595       -3.85742        3.08465
C          0.74947       -1.71552        3.59806
H         -0.04277       -1.53642        4.32687
C          1.65443       -2.75057        3.80649
F          1.54747       -3.49500        4.90570
C          4.72480       -0.19042       -0.09592
H          4.65692        0.39990        0.82182
C          3.66787       -1.35221       -1.91853
H          2.75161       -1.66831       -2.42672
C          5.97019       -0.50194       -0.61243
H          6.88936       -0.17388       -0.12334
C          4.91703       -1.67519       -2.45074
H          4.96948       -2.25186       -3.37440
C          6.07784       -1.25097       -1.79638
O          7.32834       -1.50393       -2.22403
C          7.50414       -2.24602       -3.39877
H          7.05666       -1.74185       -4.27334
H          8.58651       -2.33478       -3.55574
H          7.07123       -3.25821       -3.31329
C          2.33470        2.46351       -0.51611
H          2.29576        2.15590       -1.56502
C          2.24058        1.91667        1.82016
H          2.14072        1.19205        2.62988
C          2.54460        3.79469       -0.20619
H          2.67071        4.54869       -0.98560
C          2.43195        3.26065        2.14817
H          2.45310        3.55176        3.19827
C          2.57102        4.21118        1.13458
O          2.71011        5.53372        1.34355
C          2.63999        6.01633        2.65953
H          3.46302        5.62546        3.28320
H          2.73236        7.10794        2.59783
H          1.67580        5.76050        3.13039
