100
Cat374.ts34.5.log	Energy: -1822634.2405256
C          1.09834       -0.63331       -3.33070
H          0.94171        0.06978       -4.15404
H          2.14065       -0.94423       -3.20195
C          0.07369       -1.62558       -3.11181
H         -0.85092       -1.58921       -3.69673
H          0.39924       -2.65684       -2.92340
H         -0.13057       -1.64704       -1.56681
Ir         0.04673        0.02526       -1.58265
C          1.39409       -1.30108        1.42427
C          3.28505       -1.04239       -0.72271
C          2.48508        1.28569        0.73494
C         -1.73071        1.63765        0.90548
C         -3.42271        0.47099       -1.11756
C         -2.31063       -1.22126        0.85011
P         -1.83857        0.20109       -0.22234
P          1.78738       -0.23920       -0.02459
C         -0.14863        1.79857       -2.18919
O         -0.25021        2.89407       -2.55333
C          1.59401       -0.91559        2.75281
H          2.05939        0.04531        2.97775
C          0.77268       -2.53590        1.18595
H          0.55832       -2.83293        0.15603
C          1.18704       -1.73830        3.80282
H          1.33981       -1.40441        4.83329
C          0.40278       -3.36784        2.23376
H         -0.07949       -4.32392        2.01447
C          0.59447       -2.98078        3.56628
C          0.14455       -3.86563        4.69021
H          0.59055       -4.86986        4.61382
H          0.41595       -3.44721        5.66968
H         -0.94971       -3.99614        4.66818
C          3.68735       -2.34229       -0.42018
H          3.15095       -2.89871        0.35095
C          4.00629       -0.32543       -1.70129
O          3.58275        0.92968       -1.93231
C          4.08329        1.65406       -3.01655
H          5.15398        1.89507       -2.89138
H          3.50901        2.58832       -3.05479
H          3.94606        1.10810       -3.96646
C          4.76882       -2.93642       -1.07269
H          5.06536       -3.95626       -0.81767
C          5.08850       -0.91632       -2.35992
H          5.64160       -0.36099       -3.11824
C          5.46529       -2.22145       -2.04185
H          6.31287       -2.67583       -2.56078
C          1.84553        2.50409        0.52118
H          0.93020        2.50504       -0.07201
C          3.68587        1.27714        1.47922
O          4.27180        0.08039        1.66434
C          5.51151       -0.00397        2.30188
H          6.27924        0.59654        1.78347
H          5.80410       -1.06106        2.26779
H          5.45632        0.32026        3.35654
C          2.35245        3.69757        1.03453
H          1.82331        4.63504        0.85266
C          4.20340        2.47123        1.99269
H          5.12999        2.46934        2.56739
C          3.53232        3.67412        1.76878
H          3.94876        4.59962        2.17506
C         -2.35108        2.84840        0.58827
H         -3.01843        2.90944       -0.27456
C         -0.85593        1.60443        1.99937
H         -0.31282        0.68782        2.23628
C         -2.10742        3.98920        1.35137
H         -2.59313        4.92961        1.07575
C         -0.63611        2.73931        2.76900
H          0.06009        2.68556        3.61076
C         -1.25162        3.95752        2.45630
C         -0.96538        5.18760        3.26643
H         -1.54657        6.05044        2.91190
H         -1.20257        5.03241        4.33095
H          0.10304        5.45316        3.21066
C         -3.42542        0.45886       -2.51047
H         -2.45763        0.33199       -3.00738
C         -4.64778        0.63360       -0.43479
O         -4.58973        0.65056        0.90748
C         -5.76296        0.76985        1.65729
H         -6.27292        1.73118        1.47043
H         -5.46239        0.72494        2.71161
H         -6.46606       -0.05584        1.45071
C         -4.60723        0.60393       -3.23682
H         -4.58623        0.59560       -4.32845
C         -5.83657        0.77809       -1.15829
H         -6.78741        0.90777       -0.64073
C         -5.80810        0.76122       -2.55314
H         -6.74465        0.87699       -3.10484
C         -2.45989       -1.14081        2.23350
H         -2.29733       -0.18495        2.73105
C         -2.58365       -2.45484        0.22048
O         -2.47250       -2.47424       -1.12065
C         -2.79375       -3.63316       -1.83250
H         -2.13085       -4.47587       -1.56760
H         -2.65614       -3.39323       -2.89413
H         -3.84212       -3.93646       -1.66626
C         -2.83880       -2.24766        2.99218
H         -2.94382       -2.15315        4.07502
C         -2.96686       -3.56783        0.97520
H         -3.17824       -4.51937        0.48700
C         -3.08896       -3.45983        2.35986
H         -3.39085       -4.33525        2.94053
