96
Cat370.ts34.5.log	Energy: -1633977.1746664
C          1.04740       -3.04717       -1.57417
H          0.96075       -3.25743       -2.64406
H          2.06935       -3.15537       -1.19391
C         -0.04268       -3.46677       -0.73187
H         -0.94963       -3.87783       -1.18258
H          0.18901       -3.94439        0.22793
H         -0.28609       -2.24445        0.23025
Ir        -0.01281       -1.23910       -1.08889
C          1.21599       -0.00315        1.97731
C          3.29277       -1.10786        0.36747
C          2.17878        1.48446       -0.29082
C         -1.90637        1.71624       -0.37509
C         -3.33193       -0.35097       -1.72953
C         -2.73492       -0.57594        1.13003
P         -1.94685       -0.11652       -0.49080
P          1.66223       -0.23361        0.21386
C         -0.10377       -0.61046       -2.86463
O         -0.16088       -0.20295       -3.94933
C          0.27592        0.98211        2.31669
H         -0.11783        1.65069        1.54707
C          1.67997       -0.84011        2.99769
H          2.40893       -1.62357        2.78335
C         -0.17756        1.12265        3.62267
H         -0.90611        1.90596        3.85238
C          1.21567       -0.69957        4.30574
H          1.59678       -1.36944        5.08186
C          0.27728        0.27849        4.64628
C         -0.25052        0.40589        6.04458
H          0.41111       -0.08499        6.77223
H         -0.36179        1.46023        6.33899
H         -1.24493       -0.06266        6.13396
H          3.04916       -2.16219        0.58926
H          3.81814       -0.70486        1.24687
C          4.20872       -1.02548       -0.82652
C          5.59222       -0.97354       -0.61201
H          5.97370       -0.98392        0.41255
C          3.74065       -0.98449       -2.14533
H          2.66515       -1.02380       -2.33375
C          6.48261       -0.87850       -1.67739
H          7.55709       -0.83351       -1.48299
C          4.63050       -0.87974       -3.21399
H          4.24043       -0.83967       -4.23404
C          6.00402       -0.82549       -2.98644
H          6.69965       -0.74211       -3.82495
H          1.29920        2.11893       -0.10415
H          2.29679        1.43544       -1.38298
C          3.41406        2.03650        0.35591
C          4.60592        2.13265       -0.37379
H          4.62188        1.80931       -1.41766
C          3.41990        2.45600        1.69454
H          2.50134        2.40144        2.28159
C          5.77072        2.61967        0.21502
H          6.68802        2.67969       -0.37573
C          4.58467        2.94018        2.28512
H          4.56639        3.26078        3.32979
C          5.76675        3.02122        1.54927
H          6.67980        3.40176        2.01363
C         -1.06990        2.41185       -1.25730
H         -0.45035        1.84979       -1.96028
C         -2.68930        2.45700        0.51782
H         -3.37909        1.95671        1.19945
C         -1.01306        3.80179       -1.24026
H         -0.35282        4.31982       -1.94156
C         -2.61513        3.84765        0.54254
H         -3.23521        4.40376        1.25113
C         -1.77602        4.54657       -0.33166
C         -1.67445        6.04241       -0.28518
H         -2.55005        6.49223        0.20388
H         -0.78148        6.35695        0.28035
H         -1.58487        6.47081       -1.29441
H         -3.50347       -1.43729       -1.76614
H         -2.87799       -0.07257       -2.69264
C         -4.58636        0.41894       -1.46822
C         -4.70878        1.74749       -1.90007
H         -3.89105        2.20358       -2.46350
C         -5.65058       -0.14238       -0.74938
H         -5.59042       -1.18377       -0.42205
C         -5.84918        2.49171       -1.61251
H         -5.92070        3.52542       -1.95924
C         -6.79279        0.60129       -0.45700
H         -7.61067        0.14058        0.10236
C         -6.89433        1.92383       -0.88438
H         -7.78934        2.50810       -0.65792
H         -3.79492       -0.27916        1.08825
H         -2.23817        0.05193        1.88288
C         -2.58165       -2.01654        1.50485
C         -1.61509       -2.38916        2.44710
H         -1.00015       -1.61822        2.91592
C         -3.35267       -3.02146        0.90929
H         -4.11253       -2.75563        0.17073
C         -1.42288       -3.72765        2.78255
H         -0.66222       -3.99368        3.52082
C         -3.16128       -4.36116        1.24113
H         -3.77290       -5.13034        0.76334
C         -2.19371       -4.72011        2.17873
H         -2.04312       -5.77061        2.43846
