62
Cat321.ts34.5.log	Energy: -1680407.5337169
C         -3.81953        1.35160       -0.50633
H         -4.67446        1.00425        0.08063
H         -3.68556        2.43794       -0.47484
C         -3.57701        0.68098       -1.76331
H         -4.18060       -0.19122       -2.03047
H         -3.34440        1.30325       -2.63629
H         -2.03806        0.42762       -1.79239
Ir        -2.11842        0.09297       -0.13151
C          1.13025        1.59632       -0.37623
C         -0.98406        3.47327       -0.46366
C         -0.30827        2.20108        2.04177
C          0.88321       -1.69754        0.36160
C         -1.41353       -3.35140        0.18041
C         -0.36979       -2.11760       -2.23550
P         -0.75407       -1.75075       -0.46802
P         -0.57889        1.81340        0.25758
C         -2.81160       -0.66309        1.44366
O         -3.18797       -1.13426        2.43505
C          2.27821        1.65823        0.42044
H          2.20235        1.85654        1.49019
C          1.28527        1.32413       -1.74348
H          0.39580        1.25093       -2.37664
C          3.54328        1.43999       -0.12119
H          4.42989        1.45136        0.51499
C          2.54126        1.12009       -2.30287
H          2.65624        0.90479       -3.36671
C          3.66674        1.16664       -1.47939
Cl         5.23055        0.82488       -2.14563
H         -2.00368        3.71203       -0.12035
C         -0.02384        4.61109       -0.16463
H          1.00280        4.36464       -0.47644
H          0.00114        4.85293        0.90881
H         -1.07016        3.29958       -1.54934
H         -0.32431        5.52749       -0.69648
H          0.45643        2.98822        2.14488
C         -1.59166        2.59894        2.75291
H         -2.36194        1.82289        2.63564
H         -2.00258        3.54018        2.35548
H          0.10792        1.28188        2.48449
H         -1.41207        2.74614        3.82854
C          0.89166       -1.48258        1.74756
H         -0.05579       -1.38033        2.28477
C          2.10852       -1.78261       -0.30563
H          2.14650       -1.91978       -1.38667
C          2.08559       -1.36067        2.44969
H          2.08812       -1.18527        3.52683
C          3.31302       -1.65508        0.38228
H          4.26417       -1.68745       -0.15147
C          3.29334       -1.43925        1.75628
Cl         4.78650       -1.20684        2.60524
H         -1.49866       -3.21568        1.27048
C         -2.76207       -3.72796       -0.40966
H         -2.70043       -3.90877       -1.49433
H         -3.49144       -2.91968       -0.24914
H         -0.65700       -4.13581        0.01732
H         -3.15018       -4.64524        0.05851
H          0.30525       -1.30933       -2.56172
C          0.18421       -3.49347       -2.57519
H         -0.55668       -4.28381       -2.38623
H          1.08316       -3.74295       -1.99299
H         -1.31801       -1.93669       -2.76554
H          0.45339       -3.54818       -3.64141
