78
Cat326.ts34.5.log	Energy: -1967763.3283836
C          1.94375       -1.93301       -1.83253
H          1.65564       -2.24071       -2.84145
H          2.85652       -1.32947       -1.79341
C          1.70849       -2.86816       -0.76586
H          1.18639       -3.80685       -0.97068
H          2.48625       -2.97642       -0.00140
H          1.01007       -2.02055        0.42179
Ir         0.20897       -1.16505       -0.78172
C          3.11228        0.61481        0.08167
O          1.25102        2.06914       -1.05409
O          0.86835        1.33558        1.37053
C         -2.78013        0.30948        0.27155
O         -2.74163       -2.30200        0.40774
O         -1.29756       -1.00974        2.11890
P         -1.64072       -1.09015        0.53024
P          1.29891        0.72780       -0.09842
C         -0.87040       -1.09656       -2.34144
O         -1.54115       -1.03216       -3.28119
C          3.61865       -0.26668        1.04640
H          2.92593       -0.80264        1.70225
C          4.00230        1.28106       -0.76499
H          3.60652        1.96653       -1.51659
C          4.98780       -0.46942        1.17729
H          5.38788       -1.15041        1.93022
C          5.37637        1.08226       -0.64804
H          6.07670        1.60113       -1.30472
C          5.86031        0.20918        0.32437
Cl         7.56645       -0.04364        0.47503
C          0.27889        2.22255       -2.09749
H         -0.57842        1.56576       -1.86763
C          0.89205        1.78552       -3.41145
H          1.23144        0.74201       -3.33881
H          1.75364        2.42181       -3.66882
H          0.15410        1.84934       -4.22480
C         -0.17735        3.66514       -2.09684
H         -0.65436        3.92509       -1.14149
H          0.67504        4.34301       -2.25791
H         -0.91213        3.83210       -2.89811
C          1.50623        2.48589        1.94361
H          2.37910        2.75446        1.32286
C          1.97744        2.11029        3.33291
H          2.71306        1.29525        3.28609
H          1.12603        1.77337        3.94324
H          2.44670        2.97238        3.83024
C          0.53061        3.64612        1.94004
H          0.21343        3.87380        0.91351
H         -0.35932        3.40771        2.54358
H          0.99957        4.54663        2.36425
C         -4.04498        0.15216       -0.29971
H         -4.40671       -0.85101       -0.53112
C         -2.31661        1.59714        0.57191
H         -1.31929        1.72068        1.00187
C         -4.84104        1.26352       -0.57009
H         -5.82833        1.14970       -1.02062
C         -3.10711        2.71117        0.31742
H         -2.75512        3.71626        0.55654
C         -4.36688        2.53603       -0.25827
Cl        -5.34973        3.92186       -0.59275
C         -2.42700       -3.57245       -0.17499
H         -1.44474       -3.46997       -0.67390
C         -3.48252       -3.87274       -1.21706
H         -3.48087       -3.09734       -1.99718
H         -4.48329       -3.90952       -0.75846
H         -3.28666       -4.84293       -1.69768
C         -2.32785       -4.61601        0.91764
H         -1.54630       -4.34361        1.64196
H         -3.28354       -4.71341        1.45638
H         -2.07340       -5.59723        0.48918
C         -2.28680       -0.77972        3.13008
H         -3.20753       -0.40365        2.64848
C         -1.74126        0.28849        4.05388
H         -1.54479        1.21463        3.49629
H         -0.79429       -0.04755        4.50307
H         -2.45636        0.50713        4.86077
C         -2.59440       -2.08588        3.83298
H         -3.00859       -2.81346        3.12285
H         -1.67777       -2.50727        4.27360
H         -3.32728       -1.92793        4.63852
