54
Cat324.ts34.5.log	Energy: -1770536.1528174
C          3.57408       -1.73643       -0.18309
H          3.63469       -2.79457       -0.45075
H          4.09367       -1.05724       -0.86415
C          3.56293       -1.40819        1.21436
H          3.52762       -2.20883        1.95801
H          4.14783       -0.54300        1.54399
H          2.35659       -0.34507        1.42238
Ir         1.51460       -1.19709        0.24334
C          0.72637        2.16006       -0.66668
O          3.12031        1.16717       -1.43300
O          0.94794        0.49322       -2.64205
C         -1.99576       -1.05387        0.48564
O         -0.78378       -1.58374        2.72523
O         -0.50865        0.79298        1.82167
P         -0.41543       -0.77114        1.34287
P          1.59432        0.62710       -1.12267
C          0.84169       -2.84244       -0.43293
O          0.43551       -3.82989       -0.87206
C         -0.45383        2.57785       -1.28568
H         -0.81887        2.04026       -2.16227
C          1.20275        2.86539        0.44443
H          2.11506        2.53187        0.94600
C         -1.16503        3.66921       -0.79141
H         -2.09511        3.99296       -1.26139
C          0.51472        3.96709        0.93552
H          0.88049        4.51985        1.80228
C         -0.67735        4.35244        0.32013
Cl        -1.57296        5.68822        0.96549
C          3.35133        2.25485       -2.30493
H          2.85284        2.10328       -3.27542
H          2.98891        3.20080       -1.86932
H          4.43657        2.32405       -2.46160
C          1.14398       -0.69378       -3.38045
H          2.21030       -0.85196       -3.61188
H          0.77386       -1.57274       -2.82801
H          0.58583       -0.58703       -4.32059
C         -3.13330       -1.54083        1.13901
H         -3.07145       -1.80269        2.19665
C         -2.06888       -0.74671       -0.87757
H         -1.17641       -0.39362       -1.39942
C         -4.32949       -1.70507        0.44760
H         -5.21966       -2.08864        0.94876
C         -3.26084       -0.90003       -1.57764
H         -3.32255       -0.66253       -2.64073
C         -4.38635       -1.37784       -0.90714
Cl        -5.87261       -1.57713       -1.77068
C          0.23640       -1.89263        3.64919
H          1.11145       -2.32247        3.13286
H          0.55611       -0.99595        4.20606
H         -0.17163       -2.62764        4.35606
C         -1.66837        1.34289        2.40546
H         -2.51684        1.32943        1.70155
H         -1.95475        0.80185        3.32227
H         -1.43823        2.38755        2.65551
