98
Cat315.ts34.5.log	Energy: -1524050.7834943
C         -0.80825       -3.42718       -1.14633
H         -0.86436       -4.30057       -0.49021
H         -1.71722       -3.27332       -1.73863
C          0.46036       -3.17756       -1.79492
H          1.32964       -3.78422       -1.52450
H          0.45180       -2.93704       -2.86544
H          0.64417       -1.62485       -1.67393
Ir         0.02292       -1.74059       -0.10924
C         -1.08861        1.19500       -1.72841
C         -3.15821       -0.78162       -1.47310
C         -2.32009        0.71545        0.83959
C          1.08993        1.05150        1.73565
C          3.12897       -0.92944        1.40056
C          2.36523        0.73632       -0.84843
P          1.65541       -0.22647        0.54510
P         -1.63610       -0.16862       -0.62323
C         -0.08552       -2.49959        1.61187
O         -0.14209       -2.92363        2.69110
C         -0.92744        2.52018       -1.30484
H         -1.26419        2.82773       -0.31456
C         -0.63536        0.85436       -3.01330
H         -0.72337       -0.17986       -3.35766
C         -0.29916        3.46730       -2.11546
H         -0.15268        4.49664       -1.78218
C         -0.02556        1.78905       -3.84090
H          0.33842        1.52504       -4.83556
C          0.15321        3.08684       -3.37016
F          0.78614        3.97527       -4.13555
H         -2.82390       -1.27080       -2.40399
H         -3.77942        0.07847       -1.76810
C         -3.92443       -1.77201       -0.60477
H         -3.20287       -2.45596       -0.12642
H         -4.42152       -1.23228        0.22130
C         -4.97432       -2.59602       -1.35275
H         -4.44999       -3.13410       -2.16579
C         -5.58704       -3.63786       -0.42453
H         -4.81503       -4.29191        0.00947
H         -6.31151       -4.27455       -0.95569
H         -6.12004       -3.15292        0.41049
C         -6.05247       -1.72379       -1.98603
H         -6.80251       -2.33567       -2.51089
H         -5.63540       -1.01423       -2.71650
H         -6.58193       -1.13797       -1.21531
H         -1.46677        1.26032        1.27217
H         -2.53782       -0.08200        1.56633
C         -3.51436        1.64260        0.63724
H         -3.44587        2.14994       -0.33985
H         -4.44610        1.05103        0.59726
C         -3.64502        2.71090        1.72751
H         -2.70649        3.29924        1.71898
C         -4.79542        3.66030        1.41776
H         -4.67518        4.13109        0.42931
H         -4.86709        4.46302        2.16793
H         -5.75780        3.12170        1.41475
C         -3.78714        2.10556        3.11901
H         -3.84102        2.89158        3.88765
H         -2.93518        1.45758        3.37213
H         -4.70563        1.49873        3.19095
C          0.98850        2.40991        1.41302
H          1.35699        2.78032        0.45620
C          0.59253        0.62286        2.97697
H          0.62887       -0.43515        3.24691
C          0.37954        3.31385        2.28370
H          0.28084        4.37151        2.03196
C         -0.00423        1.51450        3.86082
H         -0.40633        1.18476        4.82037
C         -0.11860        2.85115        3.49336
F         -0.73371        3.70119        4.31309
H          2.75460       -1.37651        2.33682
H          3.80395       -0.10451        1.67870
C          3.82100       -1.98985        0.55792
H          3.05147       -2.70297        0.21439
H          4.24116       -1.52891       -0.35557
C          4.93398       -2.75442        1.27716
H          4.48851       -3.20470        2.18425
C          5.44683       -3.88761        0.39620
H          4.63283       -4.56941        0.10491
H          6.21724       -4.48176        0.91168
H          5.89708       -3.49099       -0.52942
C          6.07620       -1.84430        1.71522
H          6.87165       -2.41746        2.21632
H          5.74088       -1.06514        2.41621
H          6.52881       -1.33946        0.84456
H          1.52374        1.32578       -1.24672
H          2.57472       -0.01336       -1.62622
C          3.57979        1.61635       -0.57484
H          3.52325        2.04878        0.43833
H          4.49600        0.99938       -0.58150
C          3.73470        2.76210       -1.58013
H          2.81611        3.37753       -1.51334
C          4.91935        3.64556       -1.21078
H          4.82613        4.03813       -0.18598
H          5.00857        4.50385       -1.89444
H          5.86334        3.07799       -1.26499
C          3.84133        2.26485       -3.01701
H          3.92141        3.10767       -3.72030
H          2.96051        1.67604       -3.31298
H          4.73377        1.62955       -3.14781
