108
Cat371.ts34.5.log	Energy: -1732576.0692023
C          0.69017       -2.70915       -2.19943
H          0.18719       -2.87057       -3.15685
H          1.78228       -2.76082       -2.24676
C          0.04965       -3.22053       -1.02561
H         -0.91725       -3.72393       -1.11194
H          0.69211       -3.64689       -0.24611
H         -0.07377       -2.01400        0.04388
Ir        -0.18810       -0.95762       -1.27267
C          3.01697       -1.58831       -0.10257
C          2.82332        0.66626       -1.95433
C          2.10971        1.06761        0.85555
C         -1.39597        1.89868        0.33453
C         -3.34816        0.58729       -1.31368
C         -2.69324       -0.45223        1.31529
P         -1.88927        0.21182       -0.21266
P          1.92607       -0.18275       -0.54463
C         -0.65967       -0.16938       -2.90919
O         -0.92619        0.36220       -3.90510
C          2.78656       -2.26249        1.10808
H          2.03571       -1.88847        1.80346
C          3.92959       -2.16872       -0.99125
H          4.10700       -1.72634       -1.97244
C          3.49005       -3.41170        1.44155
H          3.29505       -3.89360        2.40374
C          4.62361       -3.33268       -0.66077
H          5.32901       -3.75484       -1.38202
C          4.43379       -3.96803        0.56752
C          5.20563       -5.19731        0.94549
H          5.72663       -5.62962        0.07960
H          5.96550       -4.96582        1.71026
H          4.54732       -5.97099        1.36953
H          3.05206       -0.13859       -2.66864
H          2.03842        1.26059       -2.43907
C          4.03094        1.50179       -1.64074
C          5.28197        0.90812       -1.42286
H          5.37975       -0.17464       -1.49600
C          3.92548        2.90766       -1.54038
C          2.63088        3.61835       -1.80925
H          1.82389        3.27600       -1.14504
H          2.28400        3.45348       -2.84257
H          2.74220        4.70183       -1.66398
C          6.40315        1.66273       -1.09099
H          7.36180        1.16587       -0.92485
C          5.06058        3.65128       -1.19649
H          4.97082        4.73797       -1.11427
C          6.29173        3.04482       -0.96711
H          7.16036        3.65114       -0.70006
H          2.60463        1.93565        0.39922
H          1.08798        1.37605        1.10888
C          2.89176        0.66132        2.06880
C          4.28796        0.74896        2.04371
H          4.77676        1.12700        1.14298
C          2.25629        0.17140        3.22720
C          0.76135        0.05418        3.30024
H          0.34724       -0.44909        2.41111
H          0.28737        1.04700        3.34898
H          0.45001       -0.51154        4.18945
C          5.05784        0.35238        3.13219
H          6.14681        0.42633        3.08355
C          3.04339       -0.22140        4.31477
H          2.54949       -0.60658        5.21148
C          4.43293       -0.13901        4.27564
H          5.02415       -0.45793        5.13743
C         -0.92281        2.77628       -0.65247
H         -0.85048        2.43506       -1.68921
C         -1.44717        2.35973        1.65197
H         -1.81932        1.71749        2.45095
C         -0.54692        4.07388       -0.33208
H         -0.20982        4.74644       -1.12563
C         -1.02846        3.65118        1.97509
H         -1.06674        3.98064        3.01715
C         -0.57617        4.53424        0.99279
C         -0.11359        5.91975        1.33248
H         -0.38407        6.19609        2.36103
H          0.98245        5.99976        1.24341
H         -0.54861        6.66628        0.65062
H         -2.94954        1.27112       -2.08061
H         -3.54165       -0.36022       -1.83125
C         -4.59662        1.13963       -0.68290
C         -4.57206        2.37631       -0.02217
H         -3.64066        2.94264        0.01425
C         -5.82060        0.43865       -0.77074
C         -5.94597       -0.85115       -1.52796
H         -5.28401       -1.63130       -1.12546
H         -5.68938       -0.71876       -2.59147
H         -6.97491       -1.23166       -1.47793
C         -5.71028        2.90489        0.58119
H         -5.65657        3.86979        1.09090
C         -6.95414        0.98640       -0.15839
H         -7.89879        0.43975       -0.22445
C         -6.90970        2.20081        0.52080
H         -7.81238        2.59942        0.99006
H         -1.87221       -0.74187        1.99283
H         -3.21672        0.39205        1.78013
C         -3.65695       -1.59482        1.13214
C         -3.34021       -2.67338        0.30042
H         -2.39874       -2.64213       -0.25033
C         -4.88683       -1.59723        1.82508
C         -5.28565       -0.46752        2.72983
H         -5.33921        0.48778        2.18377
H         -4.57134       -0.33686        3.55886
H         -6.27564       -0.65095        3.16879
C         -4.20805       -3.75207        0.14635
H         -3.93609       -4.58020       -0.51254
C         -5.74920       -2.68555        1.65302
H         -6.70442       -2.68655        2.18520
C         -5.42154       -3.75879        0.82763
H         -6.11666       -4.59434        0.71569
