90
Cat305.ts34.5.log	Energy: -1709116.9811610
C         -1.18521        0.20610       -3.52535
H         -0.91314       -0.52369       -4.29327
H         -2.26632        0.33220       -3.40162
C         -0.34581        1.37302       -3.40523
H          0.57712        1.43924       -3.98899
H         -0.83355        2.34974       -3.29658
H         -0.15746        1.55376       -1.85274
Ir        -0.04231       -0.12239       -1.73760
C         -1.97741        1.39888        0.81114
C         -3.49205       -0.42060       -0.80899
C         -1.65519       -1.45740        1.08033
C          1.98835       -1.28873        0.83570
C          3.38553        0.39714       -1.02330
C          1.65542        1.54959        0.92437
P          1.73221        0.14545       -0.25839
P         -1.78735       -0.12915       -0.18794
C          0.54953       -1.84980       -2.21860
O          0.90307       -2.92467       -2.46705
C         -1.65769        1.48752        2.16879
H         -1.36828        0.59090        2.71901
C         -2.34348        2.57082        0.13058
H         -2.57457        2.52418       -0.93754
C         -1.69518        2.71101        2.83617
H         -1.42170        2.79487        3.88906
C         -2.41610        3.79162        0.78932
H         -2.70997        4.70673        0.27210
C         -2.07956        3.84436        2.13790
F         -2.10077        5.02436        2.76502
C         -3.64841       -1.40267       -1.79414
H         -2.76319       -1.90909       -2.18887
C         -4.62244        0.24116       -0.31726
H         -4.50832        1.00812        0.45340
C         -4.92058       -1.71946       -2.26150
H         -5.04126       -2.49133       -3.02563
C         -5.90528       -0.05832       -0.78938
C         -7.10681        0.68042       -0.27394
H         -7.94728       -0.00305       -0.08010
H         -6.88035        1.21748        0.65800
H         -7.45748        1.42481       -1.00796
C         -6.03882       -1.05220       -1.76584
H         -7.03353       -1.30416       -2.14448
C         -2.61988       -1.67463        1.99551
H         -3.53692       -1.07808        1.97736
C         -0.40808       -2.27983        1.09098
H         -0.17341       -2.59773        0.06539
C         -2.47941       -2.68029        3.04580
H         -3.26828       -2.74932        3.79946
C         -0.33208       -3.48875        2.07284
C         -0.24371       -4.84181        1.38336
H         -1.19744       -5.06691        0.88271
H          0.55021       -4.83889        0.62050
H         -0.02684       -5.64677        2.10194
C         -1.42038       -3.50315        3.10257
H         -1.33861       -4.25056        3.89942
C          3.05410       -2.10757        0.72028
H          3.85713       -1.86058        0.02173
C          0.84648       -1.64276        1.74881
H          0.55894       -0.77116        2.35633
C          3.19039       -3.33736        1.49195
H          4.07228       -3.96763        1.36594
C          1.01364       -2.91111        2.63556
H          0.96092       -2.71115        3.71938
C          2.24130       -3.69482        2.36507
F          2.34819       -4.81061        3.08889
C          3.56455        0.08385       -2.37103
H          2.70536       -0.27346       -2.94640
C          4.46879        0.87864       -0.27645
H          4.32784        1.13731        0.77626
C          4.82161        0.23805       -2.95601
H          4.96386       -0.01157       -4.01034
C          5.73018        1.04467       -0.85116
C          6.88446        1.57359       -0.04972
H          7.23049        2.54271       -0.44377
H          6.60832        1.71986        1.00378
H          7.74405        0.88588       -0.08371
C          5.89104        0.71302       -2.20450
H          6.87164        0.83615       -2.67364
C          2.12248        1.43384        2.23740
H          2.51681        0.47977        2.59639
C          1.18423        2.78713        0.47492
H          0.80645        2.86917       -0.54774
C          2.10019        2.54323        3.08254
H          2.45533        2.44851        4.11182
C          1.18331        3.91349        1.29959
C          0.71759        5.24775        0.79522
H          1.56140        5.95199        0.71204
H          0.25384        5.16024       -0.19676
H         -0.01798        5.69654        1.47920
C          1.63751        3.76958        2.61789
H          1.62484        4.63485        3.28672
