94
Cat308.ts34.5.log	Energy: -1897911.3789673
C          1.26576        0.42890        3.61971
H          1.02067       -0.25503        4.43636
H          2.34125        0.52766        3.44257
C          0.42828        1.59362        3.46353
H         -0.47310        1.69394        4.07373
H          0.91202        2.56173        3.27955
H          0.19599        1.68544        1.92419
Ir         0.03486        0.00984        1.90039
C          2.88070        0.92672       -0.20127
O          2.81029       -1.45337        1.07750
O          1.41085       -1.01591       -1.05225
C         -2.83841       -0.86426       -0.17019
O         -2.77700        1.49247        1.13994
O         -1.33583        1.09715       -0.95693
P         -1.70318        0.38138        0.49799
P          1.73974       -0.33808        0.43568
C         -0.55165       -1.65001        2.61915
O         -0.83705       -2.68477        3.04376
C          3.63817        0.74975       -1.36702
H          3.51530       -0.15948       -1.95713
C          3.03364        2.09675        0.54583
H          2.42331        2.24607        1.43910
C          4.53431        1.72877       -1.77785
H          5.13119        1.61634       -2.68464
C          3.93693        3.07971        0.15268
H          4.06249        4.00544        0.71632
C          4.66958        2.87967       -1.00886
F          5.50994        3.83297       -1.41462
C          3.98028       -1.80977        0.45575
C          3.98515       -2.77698       -0.54798
H          3.04822       -3.25229       -0.84331
C          5.17248       -1.19896        0.84256
H          5.14680       -0.43689        1.62367
C          5.18666       -3.11876       -1.16453
H          5.18197       -3.87544       -1.95410
C          6.36400       -1.55297        0.21878
H          7.29264       -1.06292        0.52443
C          6.39533       -2.51628       -0.79745
C          7.68984       -2.91121       -1.44750
H          7.52611       -3.33061       -2.45063
H          8.21427       -3.67830       -0.85322
H          8.37153       -2.05308       -1.54303
C          0.49006       -2.00608       -1.25214
C          0.27168       -3.02900       -0.32918
H          0.83793       -3.05621        0.60223
C         -0.22233       -1.98992       -2.45165
H         -0.03876       -1.18356       -3.16335
C         -0.67223       -4.01523       -0.60941
H         -0.84060       -4.80491        0.12757
C         -1.14794       -2.99070       -2.72017
H         -1.69838       -2.96713       -3.66476
C         -1.39651       -4.02230       -1.80449
C         -2.40199       -5.09544       -2.10527
H         -3.42910       -4.69853       -2.11407
H         -2.36564       -5.89808       -1.35532
H         -2.22197       -5.54787       -3.09290
C         -3.39673       -0.73552       -1.44823
H         -3.06861        0.07577       -2.09793
C         -3.25969       -1.90647        0.66136
H         -2.83787       -2.01844        1.66072
C         -4.36261       -1.63184       -1.88829
H         -4.80958       -1.55057       -2.88047
C         -4.22585       -2.81027        0.23102
H         -4.55999       -3.63507        0.86223
C         -4.76308       -2.65614       -1.03967
F         -5.67321       -3.53104       -1.46835
C         -3.98177        1.76821        0.53560
C         -4.05986        2.64951       -0.53994
H         -3.15530        3.13166       -0.91345
C         -5.13509        1.14845        1.01655
H         -5.05179        0.45704        1.85682
C         -5.29638        2.89790       -1.13399
H         -5.34967        3.58865       -1.98004
C         -6.35974        1.40551        0.41214
H         -7.25673        0.90788        0.79136
C         -6.46511        2.28205       -0.67638
C         -7.79650        2.55944       -1.31235
H         -7.68436        3.10265       -2.26122
H         -8.43340        3.17145       -0.65257
H         -8.34558        1.62748       -1.51710
C         -0.46797        2.14164       -1.11506
C         -0.45539        3.24521       -0.26039
H         -1.13570        3.28123        0.59171
C          0.39651        2.10151       -2.20888
H          0.38798        1.22115       -2.85208
C          0.42173        4.29869       -0.51536
H          0.42321        5.15944        0.15921
C          1.25713        3.16485       -2.45138
H          1.93269        3.11678       -3.30954
C          1.28741        4.28652       -1.61247
C          2.21572        5.43201       -1.89346
H          2.16301        6.19427       -1.10325
H          1.96533        5.92330       -2.84751
H          3.26142        5.09632       -1.96771
