74
Cat323.ts34.5.log	Energy: -1778996.8748479
C         -2.96082       -2.45984       -0.48730
H         -4.00842       -2.15693       -0.57154
H         -2.62846       -3.09674       -1.31355
C         -2.47688       -2.77433        0.83669
H         -3.12299       -2.60393        1.70276
H         -1.86668       -3.67891        0.95822
H         -1.07130       -2.08455        0.89682
Ir        -1.74382       -0.78148        0.07425
C          1.62410       -1.37772       -0.66160
C         -0.16557       -2.57290       -2.58370
C          0.38205        0.41287       -2.57982
C          0.16189        2.07397        0.63762
C         -1.90551        1.66169        2.59466
C          0.66388        0.00820        2.61660
P         -0.68687        0.71061        1.53684
P          0.01133       -1.05982       -1.48910
C         -3.07519        0.48410       -0.32199
O         -3.87851        1.28698       -0.56758
C          2.71115       -0.49620       -0.66990
H          2.68499        0.40947       -1.27511
C          1.72431       -2.52793        0.13951
H          0.88523       -3.22755        0.18326
C          3.84262       -0.73091        0.11254
H          4.67745       -0.02771        0.10854
C          2.84915       -2.78650        0.91072
H          2.90981       -3.68127        1.53230
C          3.90500       -1.87209        0.90555
Cl         5.29470       -2.16025        1.89787
H         -0.53699       -3.31488       -1.85345
C         -1.27319       -2.35229       -3.60940
H         -1.59210       -3.31505       -4.03957
H         -2.15290       -1.86746       -3.16090
H         -0.92429       -1.72263       -4.44172
C          1.09724       -3.14259       -3.21823
H          1.89507       -3.31025       -2.48098
H          0.86820       -4.11327       -3.68861
H          1.49720       -2.48656       -4.00284
H          0.79643        1.12016       -1.83991
C          1.41276        0.19950       -3.68480
H          1.72186        1.17404       -4.09675
H          2.31741       -0.32169       -3.34211
H          0.98695       -0.38133       -4.51635
C         -0.88279        1.06026       -3.13241
H         -1.63925        1.19527       -2.34926
H         -0.63707        2.04815       -3.55325
H         -1.33350        0.45886       -3.93510
C         -0.62967        2.91782       -0.15885
H         -1.71508        2.79779       -0.17491
C          1.54940        2.25179        0.60251
H          2.20580        1.62015        1.20019
C         -0.06176        3.89163       -0.97038
H         -0.68751        4.53426       -1.59154
C          2.13551        3.21633       -0.21690
H          3.21977        3.33759       -0.24685
C          1.32673        4.02798       -1.00654
Cl         2.04655        5.21026       -2.04625
H         -2.63040        1.97349        1.82274
C         -2.64242        0.72141        3.54075
H         -3.52781        1.22362        3.96109
H         -2.97847       -0.18291        3.01075
H         -2.00583        0.41727        4.38619
C         -1.40299        2.91873        3.29422
H         -0.81738        3.56358        2.62298
H         -2.26411        3.50670        3.65105
H         -0.78361        2.68728        4.17089
H          1.43982       -0.21925        1.86408
C          1.24427        0.96219        3.65777
H          2.19937        0.56125        4.03360
H          1.43273        1.97242        3.27029
H          0.57038        1.05556        4.52196
C          0.28736       -1.31750        3.26723
H         -0.08163       -2.04086        2.52950
H          1.17601       -1.75055        3.75301
H         -0.48849       -1.19244        4.03667
