100
Cat368.ts34.5.log	Energy: -1822723.2084542
C         -0.93926        0.71356       -3.49110
H         -0.97391       -0.04734       -4.27533
H         -1.89274        1.22471       -3.32374
C          0.27483        1.46635       -3.35811
H          1.13191        1.20933       -3.98709
H          0.19759        2.54145       -3.15901
H          0.64624        1.45012       -1.80180
Ir         0.02844       -0.11052       -1.72681
C         -1.49751        2.44084        0.24665
O         -3.18919        0.87055       -0.88651
O         -1.80589       -0.16737        1.03350
C          1.52829       -2.35231        0.49625
O          3.27196       -0.93819       -0.76124
O          1.84479        0.35374        0.92890
P          1.68346       -0.73906       -0.31734
P         -1.61569        0.72723       -0.35936
C         -0.17977       -1.91711       -2.29169
O         -0.34978       -3.00559       -2.62965
C         -0.29285        2.80697        0.86169
H          0.51082        2.07113        0.94965
C         -2.52066        3.38484        0.13302
H         -3.46168        3.10241       -0.33891
C         -0.13098        4.08772        1.37493
H          0.80949        4.35213        1.86685
C         -2.34029        4.67173        0.63585
H         -3.14917        5.40183        0.54199
C         -1.14962        5.04584        1.26773
C         -0.95107        6.43696        1.79277
H         -0.33122        7.03214        1.10159
H         -1.90780        6.96388        1.91528
H         -0.43453        6.42943        2.76424
C         -4.05672       -0.12942       -1.24406
C         -3.67775       -1.18819       -2.06554
H         -2.65143       -1.23999       -2.42383
C         -5.37199       -0.00984       -0.76332
C         -5.76530        1.15112        0.09600
H         -5.08715        1.26146        0.95507
H         -5.72312        2.09508       -0.47142
H         -6.78866        1.02838        0.47505
C         -4.60787       -2.16886       -2.40366
H         -4.30033       -3.00145       -3.04030
C         -6.28318       -1.00650       -1.12203
H         -7.30942       -0.93222       -0.75181
C         -5.91379       -2.08269       -1.92917
H         -6.64815       -2.84850       -2.18862
C         -2.83744       -0.05782        1.93805
C         -2.94292        1.06756        2.75872
H         -2.20462        1.86383        2.66901
C         -3.73434       -1.13210        2.04897
C         -3.60081       -2.37301        1.21793
H         -4.48418       -2.51202        0.57589
H         -2.72061       -2.33613        0.56637
H         -3.51816       -3.26168        1.86353
C         -3.98225        1.15753        3.67955
H         -4.06512        2.04178        4.31545
C         -4.76775       -1.01117        2.98605
H         -5.48171       -1.83412        3.08183
C         -4.90480        0.11790        3.78799
H         -5.72537        0.18158        4.50622
C          2.54439       -3.31118        0.51606
H          3.49049       -3.10296        0.01668
C          0.31526       -2.62179        1.14271
H         -0.48022       -1.87246        1.13446
C          2.34630       -4.51980        1.17797
H          3.14773       -5.26377        1.18566
C          0.13515       -3.82684        1.81082
H         -0.81342       -4.01846        2.32013
C          1.14345       -4.80001        1.83609
C          0.92336       -6.11576        2.52150
H          0.32127       -5.99863        3.43451
H          0.37997       -6.81189        1.86082
H          1.87448       -6.59529        2.79308
C          4.14149       -0.01148       -1.26985
C          3.77364        0.87782       -2.27589
H          2.75802        0.83489       -2.66528
C          5.44697       -0.03164       -0.74989
C          5.83372       -1.03037        0.29569
H          5.13805       -1.01055        1.14714
H          5.81303       -2.05413       -0.11203
H          6.84734       -0.83358        0.66956
C          4.70112        1.79894       -2.75819
H          4.40704        2.49967       -3.54314
C          6.35539        0.90227       -1.25466
H          7.37370        0.90672       -0.85629
C          5.99440        1.81840       -2.24292
H          6.72685        2.53858       -2.61418
C          2.86260        0.38963        1.85301
C          2.96726       -0.60633        2.82660
H          2.24340       -1.42111        2.83470
C          3.74205        1.48330        1.82506
C          3.61402        2.58383        0.81451
H          4.48893        2.60614        0.14626
H          2.72266        2.45922        0.18914
H          3.55417        3.56306        1.31483
C          3.98736       -0.54546        3.77097
H          4.07048       -1.32899        4.52744
C          4.75530        1.51678        2.79085
H          5.45522        2.35713        2.78218
C          4.89044        0.51659        3.74902
H          5.69505        0.57111        4.48579
