90
Cat319.ts34.5.log	Energy: -1958139.4041049
C         -1.01826        2.68661       -2.63743
H         -0.67780        2.64062       -3.67552
H         -2.10698        2.76358       -2.54403
C         -0.19928        3.42098       -1.71027
H          0.76378        3.82321       -2.03447
H         -0.69487        4.06887       -0.97828
H         -0.06111        2.48140       -0.40495
Ir         0.00333        1.18365       -1.47296
C         -1.61354       -0.22213        1.33542
C         -3.13503        1.81657        0.07750
C         -3.10927       -0.74987       -1.13332
C          1.41216       -1.37526        0.58175
C          3.24554       -0.11630       -1.15899
C          2.31299        1.28111        1.24047
P          1.69143        0.26644       -0.18594
P         -1.92052        0.45146       -0.34033
C          0.64467        0.28607       -3.00138
O          1.04921       -0.26867       -3.93622
C         -1.86084       -1.54584        1.70924
H         -2.29695       -2.24458        0.99775
C         -1.02379        0.63500        2.27524
H         -0.80049        1.66687        1.99108
C         -1.52452       -2.00895        2.97941
H         -1.69189       -3.04764        3.26934
C         -0.70094        0.19580        3.55425
H         -0.24635        0.85788        4.29417
C         -0.94815       -1.13229        3.88676
F         -0.60928       -1.57280        5.09654
H         -2.58844        2.48972        0.75534
H         -3.29005        2.37617       -0.85764
C         -4.44510        1.38364        0.65876
C         -5.58479        1.28413       -0.15036
H         -5.52265        1.57114       -1.20366
C         -4.56387        1.02411        2.00935
H         -3.69523        1.09718        2.66644
C         -6.80018        0.83086        0.35556
H         -7.68975        0.75454       -0.27218
C         -5.77107        0.56976        2.53199
H         -5.86855        0.29064        3.58266
C         -6.87652        0.47392        1.69556
F         -8.03421        0.03829        2.19054
H         -3.87364       -1.02731       -0.39188
H         -3.61666       -0.12495       -1.88674
C         -2.52591       -1.96054       -1.79634
C         -1.75579       -1.83052       -2.95925
H         -1.60250       -0.83906       -3.38500
C         -2.74728       -3.24824       -1.29507
H         -3.38583       -3.38721       -0.41839
C         -1.17262       -2.93515       -3.57171
H         -0.55340       -2.82644       -4.46354
C         -2.18656       -4.36986       -1.90277
H         -2.36034       -5.37655       -1.51805
C         -1.38903       -4.19539       -3.02670
F         -0.82981       -5.26151       -3.59825
C          0.77331       -2.34428       -0.20447
H          0.38461       -2.07136       -1.18982
C          1.87317       -1.73524        1.85238
H          2.38842       -1.01175        2.48549
C          0.61142       -3.64607        0.25766
H          0.11384       -4.40436       -0.34805
C          1.69497       -3.02852        2.33822
H          2.03655       -3.31633        3.33393
C          1.06987       -3.96796        1.52986
F          0.89299       -5.20557        1.98947
H          2.90761       -0.80053       -1.95166
H          3.52840        0.82010       -1.66146
C          4.37565       -0.70427       -0.37615
C          5.37956        0.10693        0.17039
H          5.36886        1.18372       -0.01833
C          4.43854       -2.08383       -0.13104
H          3.67113       -2.73947       -0.54882
C          6.40628       -0.42858        0.94468
H          7.19213        0.19946        1.36788
C          5.45726       -2.63624        0.63831
H          5.50921       -3.70932        0.83034
C          6.42841       -1.79835        1.17289
F          7.40502       -2.32018        1.91340
H          1.65893        1.03480        2.08816
H          3.32501        0.92533        1.49477
C          2.29282        2.75930        0.99728
C          3.06990        3.35354       -0.00569
H          3.72863        2.73757       -0.62010
C          1.45655        3.58865        1.75256
H          0.84992        3.15393        2.55087
C          3.01456        4.72146       -0.25277
H          3.61771        5.18616       -1.03471
C          1.38260        4.96047        1.51901
H          0.73192        5.60854        2.10880
C          2.16376        5.51065        0.51217
F          2.10007        6.81958        0.27650
