82
Cat307.ts34.5.log	Energy: -1799306.4188370
C         -0.79696        1.97220       -3.02755
H         -0.52702        1.61934       -4.02663
H         -1.87193        2.08427       -2.85705
C          0.09225        2.90782       -2.39553
H          1.05198        3.15091       -2.85838
H         -0.34110        3.75456       -1.85190
H          0.22583        2.37013       -0.88923
Ir         0.24228        0.81779       -1.52364
C         -1.70494        0.35021        1.43861
O         -3.01276        1.02549       -0.83901
O         -2.12881       -1.36528       -0.45890
C          1.35875       -0.99008        1.29275
O          3.11566       -0.50508       -0.70068
O          2.43097        1.37262        0.98615
P          1.78768        0.19989       -0.00545
P         -1.61874        0.22282       -0.37438
C          0.89678       -0.44884       -2.79935
O          1.28448       -1.23189       -3.54794
C         -2.28532       -0.62643        2.25476
H         -2.70865       -1.52264        1.80001
C         -1.15703        1.49833        2.02204
H         -0.68340        2.24964        1.38355
C         -2.31495       -0.46133        3.63566
H         -2.75057       -1.21597        4.29288
C         -1.19206        1.68042        3.40022
H         -0.77012        2.56750        3.87634
C         -1.76806        0.69038        4.18855
F         -1.78425        0.84546        5.51025
C         -4.21457        0.82919       -0.20383
C         -5.03557       -0.23731       -0.57038
H         -4.71166       -0.91773       -1.35963
C         -4.60799        1.71648        0.79812
H         -3.94389        2.53979        1.06640
C         -6.25704       -0.41285        0.07704
H         -6.90148       -1.24722       -0.20999
C         -5.83067        1.53182        1.43835
H         -6.13789        2.22631        2.22387
C         -6.65742        0.46634        1.08266
H         -7.61521        0.32275        1.58760
C         -2.04110       -2.11940       -1.59171
C         -2.28457       -1.58866       -2.86099
H         -2.54943       -0.53583       -2.96758
C         -1.71151       -3.46710       -1.44119
H         -1.54234       -3.85511       -0.43540
C         -2.16928       -2.41318       -3.97838
H         -2.34699       -1.99354       -4.97124
C         -1.60942       -4.28211       -2.56526
H         -1.34962       -5.33647       -2.44400
C         -1.82945       -3.75727       -3.83874
H         -1.73832       -4.39562       -4.71990
C          1.41526       -0.69403        2.65763
H          1.79202        0.27613        2.98238
C          0.86583       -2.23171        0.87273
H          0.79576       -2.46087       -0.19447
C          0.97759       -1.62213        3.59658
H          0.99369       -1.40593        4.66610
C          0.44225       -3.17207        1.80406
H          0.05934       -4.14847        1.50262
C          0.49658       -2.84833        3.15502
F          0.06410       -3.73347        4.04925
C          4.01943       -1.31838       -0.06351
C          4.66718       -0.92874        1.10867
H          4.44670        0.04437        1.54924
C          4.28852       -2.55338       -0.65197
H          3.76228       -2.82003       -1.57073
C          5.58758       -1.79578        1.69490
H          6.09483       -1.49508        2.61475
C          5.21508       -3.40699       -0.05949
H          5.42765       -4.37461       -0.52031
C          5.86500       -3.03362        1.11714
H          6.58845       -3.70668        1.58225
C          2.60857        2.65749        0.54793
C          2.05067        3.68986        1.29939
H          1.49634        3.44214        2.20669
C          3.32678        2.92916       -0.61728
H          3.75230        2.10340       -1.19041
C          2.21299        5.00899        0.87964
H          1.77760        5.81989        1.46834
C          3.47826        4.25122       -1.02911
H          4.03878        4.46703       -1.94176
C          2.92209        5.29333       -0.28695
H          3.04453        6.32742       -0.61601
