90
Cat341.ts34.5.log	Energy: -2161319.3976150
C          1.06592       -3.57670       -1.63603
H          0.72326       -3.89820       -2.62341
H          2.15598       -3.59989       -1.52906
C          0.25933       -3.95337       -0.50612
H         -0.69839       -4.45654       -0.66091
H          0.76480       -4.29649        0.40381
H          0.10177       -2.62315        0.38903
Ir         0.01969       -1.77763       -1.06273
C          1.59351        0.53278        1.09413
C          3.15394       -1.79160        0.60888
C          3.10419        0.21590       -1.39773
C         -1.45481        1.28910       -0.01026
C         -3.25784       -0.52591       -1.21433
C         -2.30911       -0.99712        1.51995
P         -1.70423       -0.52118       -0.16978
P          1.92599       -0.66645       -0.25030
C         -0.61584       -1.45877       -2.80803
O         -1.02034       -1.25760       -3.87636
C          1.79133        1.91114        0.98065
H          2.21699        2.33261        0.07185
C          1.01744        0.04043        2.27362
H          0.83377       -1.03263        2.37337
C          1.40880        2.77964        2.00039
H          1.52848        3.85811        1.88594
C          0.65122        0.88992        3.31049
H          0.20220        0.50125        4.22657
C          0.83647        2.26461        3.15890
Cl         0.29958        3.34285        4.40381
H          3.32007       -2.63243       -0.08181
H          2.61079       -2.20066        1.47431
C          4.45514       -1.16975        1.01080
C          4.56021       -0.37822        2.16360
H          3.68720       -0.24168        2.80492
C          5.59595       -1.33258        0.21355
H          5.53802       -1.95730       -0.68249
C          5.76288        0.23966        2.49733
H          5.82170        0.85200        3.40046
C          6.79980       -0.71510        0.54534
H          7.67600       -0.85797       -0.09178
C          6.88692        0.07805        1.68811
H          7.82965        0.56342        1.95120
H          3.61887       -0.61912       -1.90123
H          3.86293        0.72980       -0.78840
C          2.51757        1.13416       -2.42726
C          2.74197        2.51544       -2.38327
H          3.37832        2.93465       -1.59854
C          1.75068        0.62136       -3.48066
H          1.59768       -0.45580       -3.54782
C          2.18467        3.36412       -3.33876
H          2.37660        4.43872       -3.28576
C          1.17654        1.46591       -4.42699
H          0.56338        1.03859       -5.22359
C          1.38532        2.84362       -4.35553
H          0.93921        3.50783       -5.09958
C         -0.82258        1.93817       -1.07896
H         -0.44406        1.35399       -1.92248
C         -1.90277        2.05287        1.07137
H         -2.41330        1.58520        1.91421
C         -0.64052        3.31645       -1.07139
H         -0.13574        3.81114       -1.90147
C         -1.70436        3.43097        1.10453
H         -2.02257        4.01955        1.96605
C         -1.07080        4.05180        0.03198
Cl        -0.77046        5.75869        0.08935
H         -3.52130       -1.58374       -1.35956
H         -2.92651       -0.15071       -2.19424
C         -4.39999        0.27744       -0.67908
C         -4.48607        1.65443       -0.92915
H         -3.72822        2.13408       -1.55315
C         -5.38861       -0.31352        0.11992
H         -5.35456       -1.38916        0.31396
C         -5.51836        2.41599       -0.38849
H         -5.56381        3.48768       -0.59628
C         -6.42260        0.44698        0.66320
H         -7.18385       -0.03624        1.28041
C         -6.48845        1.81660        0.41409
H         -7.29828        2.41463        0.83850
H         -3.32826       -0.59465        1.64145
H         -1.65922       -0.46465        2.22810
C         -2.26171       -2.46922        1.79566
C         -1.40118       -2.97505        2.77632
H         -0.79618       -2.28062        3.36517
C         -3.04000       -3.37993        1.06977
H         -3.71701       -3.01670        0.29443
C         -1.30943       -4.34473        3.02009
H         -0.62952       -4.71393        3.79178
C         -2.95536       -4.74843        1.31140
H         -3.57154       -5.43892        0.73050
C         -2.08518       -5.23814        2.28507
H         -2.01538       -6.31219        2.47163
