82
Cat336.ts34.5.log	Energy: -2251454.3883839
C          1.72743       -2.52295       -2.41291
H          1.46884       -2.79666       -3.43923
H          2.71124       -2.05384       -2.31000
C          1.28264       -3.39399       -1.35990
H          0.61893       -4.23217       -1.58770
H          1.97214       -3.60590       -0.53438
H          0.72029       -2.37722       -0.22578
Ir         0.06992       -1.48886       -1.47971
C          3.04755       -0.08960       -0.33648
O          1.44276        1.59510       -1.73060
O          0.69705        0.87418        0.66812
C         -2.50467        0.55746       -0.16685
O         -3.01769       -2.09549       -0.42653
O         -1.51760       -1.19886        1.46938
P         -1.72342       -1.08301       -0.17524
P          1.30663        0.26202       -0.74411
C         -0.92299       -1.39359       -3.11034
O         -1.52774       -1.31618       -4.08844
C          3.31682       -0.86161        0.80246
H          2.50434       -1.13723        1.48088
C          4.08911        0.21854       -1.21620
H          3.87768        0.78431       -2.12603
C          4.61176       -1.27950        1.08224
H          4.82859       -1.86942        1.97418
C          5.39047       -0.20046       -0.94779
H          6.20901        0.03905       -1.62848
C          5.64468       -0.94093        0.20535
Cl         7.25872       -1.46131        0.54844
C          1.55390        2.90281       -1.32457
C          2.76231        3.57964       -1.48415
H          3.61651        3.06194       -1.92206
C          0.44561        3.55381       -0.78233
H         -0.49112        3.00819       -0.67222
C          2.86329        4.90730       -1.07189
H          3.81165        5.43623       -1.19335
C          0.55852        4.87677       -0.36754
H         -0.31122        5.37468        0.06755
C          1.76820        5.55713       -0.50448
H          1.85595        6.59450       -0.17474
C          1.11642        1.76370        1.62029
C          2.40338        2.29427        1.70538
H          3.16641        2.02289        0.97852
C          0.13932        2.13171        2.54859
H         -0.86026        1.70798        2.43951
C          2.69708        3.20377        2.71997
H          3.70291        3.62680        2.77383
C          0.44860        3.03666        3.55883
H         -0.32332        3.32488        4.27651
C          1.73033        3.57921        3.65012
H          1.97256        4.29464        4.43867
C         -2.44093        1.32299       -1.33448
H         -1.90843        0.93783       -2.20746
C         -3.15975        1.07225        0.95879
H         -3.21716        0.47619        1.87096
C         -3.01624        2.58986       -1.38402
H         -2.95649        3.19667       -2.28855
C         -3.72542        2.34143        0.92466
H         -4.22668        2.75536        1.80086
C         -3.64342        3.09548       -0.24687
Cl        -4.31104        4.69123       -0.28086
C         -4.23754       -1.89139        0.17432
C         -5.24088       -1.23631       -0.53858
H         -5.02967       -0.89272       -1.55279
C         -4.46525       -2.34475        1.47344
H         -3.66670       -2.85734        2.01205
C         -6.48107       -1.02740        0.05890
H         -7.26716       -0.51195       -0.49777
C         -5.71026       -2.12939        2.06192
H         -5.89201       -2.48356        3.07945
C         -6.71859       -1.46910        1.36055
H         -7.69184       -1.30209        1.82722
C         -0.65843       -2.07897        2.06243
C          0.23948       -1.57896        3.00552
H          0.23695       -0.50994        3.22372
C         -0.67786       -3.44015        1.74936
H         -1.38401       -3.81215        1.00419
C          1.12616       -2.44959        3.63543
H          1.82855       -2.05658        4.37458
C          0.22027       -4.29898        2.38116
H          0.20895       -5.36271        2.13216
C          1.12536       -3.80958        3.32210
H          1.82547       -4.48770        3.81476
