80
Cat372.ts34.5.log	Energy: -1251665.3670439
C         -3.36361        1.13046       -1.00936
H         -4.26103        1.03577       -0.39110
H         -3.18634        2.15418       -1.35794
C         -3.09525        0.05475       -1.93954
H         -3.71680       -0.84516       -1.91248
H         -2.81598        0.32240       -2.96657
H         -1.55183       -0.16824       -1.81344
Ir        -1.72208        0.04795       -0.14875
C          1.27530        1.44507       -1.38100
C         -0.68203        3.42992       -0.70691
C          0.74374        2.05663        1.39555
C          1.01587       -1.50432        1.42562
C         -1.03653       -3.32908        0.64702
C          0.68559       -2.15983       -1.38621
P         -0.26304       -1.73559        0.13181
P         -0.10625        1.74446       -0.20963
C         -2.52906       -0.23720        1.52948
O         -2.98284       -0.42500        2.58169
C          2.58121        1.14417       -0.98170
H          2.86173        1.19603        0.07077
C          0.97363        1.34977       -2.74941
H         -0.04633        1.54972       -3.09059
C          3.54045        0.73860       -1.91196
H          4.55010        0.49684       -1.56671
C          1.93441        0.96321       -3.67330
H          1.66607        0.89560       -4.73165
C          3.23820        0.63387       -3.27101
C          4.25500        0.16453       -4.26942
H          4.00022       -0.83795       -4.65164
H          4.30524        0.83747       -5.13936
H          5.25900        0.10627       -3.82605
H          0.18611        4.09603       -0.84282
H         -1.15149        3.31634       -1.69885
C         -1.68451        4.01625        0.28024
H         -1.17272        4.24462        1.23036
H         -2.43676        3.24794        0.52453
C         -2.36526        5.27086       -0.24381
H         -1.63230        6.05872       -0.48137
H         -2.93218        5.05930       -1.16489
H         -3.07159        5.68280        0.49298
H         -0.06659        2.10304        2.14120
H          1.28262        1.12506        1.63132
C          1.66443        3.26566        1.51343
H          1.06839        4.19203        1.46949
H          2.34734        3.31208        0.64921
C          2.47352        3.23948        2.80232
H          1.81467        3.20577        3.68487
H          3.11840        2.34649        2.84354
H          3.11793        4.12685        2.89758
C          0.58980       -1.29947        2.74797
H         -0.47383       -1.34750        2.99417
C          2.38120       -1.38901        1.15055
H          2.75410       -1.52558        0.13495
C          1.49868       -0.98583        3.74969
H          1.13628       -0.82346        4.76872
C          3.28843       -1.06182        2.15964
H          4.35012       -0.96708        1.91386
C          2.86722       -0.84906        3.47410
C          3.83264       -0.46700        4.55684
H          4.87284       -0.50999        4.20486
H          3.64023        0.55869        4.91192
H          3.74002       -1.13237        5.42920
H         -0.25066       -4.09238        0.77566
H         -1.46989       -3.14256        1.64385
C         -2.12375       -3.79260       -0.31164
H         -1.68371       -3.99257       -1.30455
H         -2.83090       -2.95784       -0.45604
C         -2.85752       -5.02982        0.18084
H         -2.17046       -5.88059        0.31706
H         -3.34476       -4.84022        1.15051
H         -3.63874       -5.34250       -0.52878
H         -0.05695       -2.14102       -2.20006
H          1.33636       -1.29076       -1.58071
C          1.47426       -3.46327       -1.40850
H          0.77546       -4.31626       -1.41214
H          2.06750       -3.56983       -0.48541
C          2.39307       -3.54808       -2.61875
H          1.82300       -3.46324       -3.55779
H          3.13102       -2.72931       -2.61097
H          2.94431       -4.50034       -2.64540
