90
Cat312.ts34.5.log	Energy: -1709157.6999493
C          0.30840       -3.43712       -1.94906
H          0.00323       -3.56846       -2.99091
H          1.35551       -3.70689       -1.76900
C         -0.66202       -3.76574       -0.93497
H         -1.68077       -4.03375       -1.22620
H         -0.32705       -4.32463       -0.05301
H         -0.58947       -2.56901        0.09873
Ir        -0.40069       -1.53917       -1.22329
C          1.52302        0.36418        1.05505
C          2.65435       -2.19751        0.51851
C          2.84094       -0.29549       -1.65171
C         -1.43843        1.64274        0.00137
C         -3.47536        0.15552       -1.28852
C         -2.59328       -0.57745        1.41587
P         -1.93484       -0.10581       -0.25508
P          1.64142       -0.85757       -0.31623
C         -0.68819       -0.79761       -2.93130
O         -0.82784       -0.28532       -3.96307
C          1.82777        1.72964        1.00072
H          2.26014        2.17022        0.10698
C          0.92344       -0.12563        2.22738
H          0.63181       -1.17753        2.28190
C          1.56472        2.56900        2.08183
H          1.79168        3.63519        2.03153
C          0.66191        0.69673        3.31704
H          0.19796        0.31313        4.22806
C          0.98659        2.04609        3.22735
F          0.71630        2.85126        4.25437
H          2.64360       -3.04543       -0.18338
H          2.06793       -2.51222        1.39412
C          4.05708       -1.82934        0.88575
C          4.33589       -1.03765        2.01018
H          3.51893       -0.71616        2.65860
C          5.13066       -2.23164        0.07849
H          4.93872       -2.87076       -0.78843
C          5.63969       -0.64480        2.30004
H          5.83229       -0.02436        3.17860
C          6.43662       -1.83756        0.36585
H          7.25532       -2.16103       -0.28131
C          6.69569       -1.03604        1.47593
H          7.71746       -0.72362        1.70342
H          2.26622       -0.43032       -2.57669
H          3.64253       -1.04862       -1.65126
C          3.43936        1.07446       -1.61286
C          4.55765        1.35882       -0.81833
H          5.02118        0.56169       -0.23387
C          2.86573        2.11042       -2.36094
H          2.00735        1.89228       -3.00275
C          5.06261        2.65412       -0.74586
H          5.92910        2.85922       -0.11257
C          3.36984        3.40777       -2.28679
H          2.90798        4.20538       -2.87435
C          4.46516        3.68641       -1.47004
H          4.85921        4.70340       -1.40699
C         -1.84657        2.41931        1.09109
H         -2.46303        1.99042        1.88217
C         -0.66480        2.24475       -0.99972
H         -0.32020        1.64115       -1.84295
C         -1.48455        3.76057        1.18958
H         -1.78327        4.37088        2.04345
C         -0.31343        3.58811       -0.92686
H          0.30123        4.06192       -1.69375
C         -0.72468        4.32739        0.17579
F         -0.36643        5.60717        0.26971
H         -3.89126       -0.84761       -1.46213
H         -3.08724        0.50269       -2.25824
C         -4.48531        1.10447       -0.72749
C         -4.37208        2.48387       -0.95210
H         -3.55721        2.85911       -1.57605
C         -5.54194        0.64945        0.07355
H         -5.66450       -0.42308        0.24782
C         -5.27684        3.37773       -0.38631
H         -5.16773        4.44834       -0.57530
C         -6.44805        1.54235        0.64315
H         -7.26558        1.16379        1.26148
C         -6.31598        2.91141        0.41828
H         -7.02573        3.61300        0.86283
H         -3.54188       -0.03850        1.57378
H         -1.86401       -0.18380        2.13823
C         -2.76235       -2.05287        1.61489
C         -1.95080       -2.73820        2.52606
H         -1.22291       -2.17698        3.11729
C         -3.69943       -2.79262        0.88249
H         -4.34490       -2.28741        0.16155
C         -2.06023       -4.11759        2.69527
H         -1.41474       -4.62880        3.41370
C         -3.81447       -4.17030        1.04859
H         -4.55131       -4.72568        0.46337
C         -2.99155       -4.84052        1.95302
H         -3.07907       -5.92187        2.08072
