84
Cat357.ts34.5.log	Energy: -1535365.6443928
C         -1.11690       -0.47682       -3.45714
H         -0.80057       -1.32962       -4.06473
H         -2.20374       -0.37467       -3.37172
C         -0.33085        0.72615       -3.55920
H          0.59283        0.72399       -4.14574
H         -0.86216        1.68255       -3.63869
H         -0.17530        1.20664       -2.06669
Ir         0.00995       -0.40515       -1.62805
C         -1.91759        1.52536        0.63058
C         -3.48803       -0.40264       -0.82607
C         -1.90029       -1.29858        1.26998
C          1.89767       -0.84366        1.31424
C          3.45847       -0.10337       -0.96825
C          1.92302        1.87758        0.39059
P          1.78954        0.14524       -0.22439
P         -1.79615       -0.12845       -0.14919
C          0.67578       -2.16099       -1.81057
O          1.08870       -3.23812       -1.91256
C         -1.55043        1.77746        1.95645
H         -1.29980        0.94549        2.61666
C         -2.23947        2.62140       -0.18306
H         -2.51038        2.45648       -1.23015
C         -1.49728        3.08032        2.44625
H         -1.19192        3.24880        3.48288
C         -2.20952        3.91731        0.31880
H         -2.47605        4.75264       -0.33530
C         -1.82402        4.17472        1.64078
C         -1.71507        5.57633        2.16212
H         -0.66611        5.91761        2.13355
H         -2.30953        6.28062        1.56274
H         -2.04947        5.64703        3.20777
C         -3.67202       -1.56173       -1.59281
C         -4.58800        0.42327       -0.57135
C         -6.01983       -1.05441       -1.84270
C         -5.84514        0.09988       -1.08248
C         -4.92920       -1.88829       -2.09217
H         -2.81152       -2.20667       -1.79374
H         -5.05728       -2.79722       -2.68502
H         -7.00576       -1.30572       -2.24109
H         -6.69565        0.75507       -0.87776
H         -4.46830        1.32352        0.03519
C         -1.07204       -2.42078        1.29572
C         -2.86200       -1.13593        2.27803
C         -2.12758       -3.18320        3.32886
C         -2.96543       -2.06577        3.30786
C         -1.18841       -3.36270        2.31728
H         -0.33289       -2.54833        0.50363
H         -0.53270       -4.23611        2.32031
H         -2.21813       -3.91906        4.13214
H         -3.71461       -1.92705        4.09131
H         -3.54028       -0.27913        2.25239
C          2.40569       -2.14703        1.26626
H          2.83175       -2.53504        0.33772
C          1.34764       -0.38618        2.51712
H          0.94496        0.62630        2.57784
C          2.36486       -2.96283        2.39382
H          2.76801       -3.97766        2.33360
C          1.30788       -1.20820        3.63763
H          0.86484       -0.83059        4.56343
C          1.81102       -2.51316        3.59751
C          1.71462       -3.40803        4.79665
H          2.34309       -4.30308        4.68777
H          2.01690       -2.88543        5.71680
H          0.67411       -3.74393        4.94273
C          3.56724       -0.12966       -2.36088
C          4.61789       -0.22436       -0.19105
C          5.96330       -0.37258       -2.19232
C          5.86212       -0.36035       -0.80062
C          4.81399       -0.25781       -2.97119
H          2.64893       -0.06994       -2.95254
H          4.88511       -0.27870       -4.06131
H          6.94079       -0.48135       -2.66865
H          6.75915       -0.46241       -0.18495
H          4.54949       -0.23431        0.89900
C          1.16555        2.88776       -0.20235
C          2.81365        2.21801        1.41987
C          2.17172        4.53989        1.24130
C          2.93249        3.53729        1.84504
C          1.29024        4.21164        0.21568
H          0.45922        2.62436       -0.99121
H          0.68354        4.98543       -0.25974
H          2.26912        5.57667        1.57328
H          3.62685        3.78535        2.65144
H          3.41241        1.44503        1.90517
