100
Cat375.ts34.5.log	Energy: -1822725.3707451
C         -0.87644       -3.34929       -0.97413
H         -0.93649       -4.15117       -0.23389
H         -1.79779       -3.20897       -1.54642
C          0.38480       -3.14801       -1.63451
H          1.26740       -3.70912       -1.31405
H          0.37754       -2.95250       -2.71346
H          0.61694       -1.59561       -1.60295
Ir        -0.04151       -1.57810       -0.05085
C         -1.46870        1.11703       -2.02159
O         -3.15566       -0.59532       -1.05493
O         -1.91557        0.96788        0.63493
C          1.64409        0.64439        2.14703
O          3.15774       -0.99520        0.78040
O          1.99305        0.91853       -0.53218
P          1.67121       -0.26187        0.58131
P         -1.62570       -0.05744       -0.64284
C         -0.36235       -2.19493        1.71838
O         -0.60493       -2.54814        2.78982
C         -0.77713        2.31837       -1.83440
H         -0.39751        2.58188       -0.84540
C         -1.94928        0.80319       -3.29620
H         -2.50362       -0.12481       -3.45141
C         -0.58619        3.19152       -2.89898
H         -0.06246        4.13639       -2.72819
C         -1.74426        1.67913       -4.35860
H         -2.13367        1.42332       -5.34805
C         -1.05995        2.88706       -4.18158
C         -0.81880        3.82003       -5.33159
H         -1.54164        3.65649       -6.14349
H         -0.88633        4.87209       -5.01741
H          0.18932        3.67098       -5.75370
C         -3.79278       -1.60886       -0.39212
C         -3.69248       -1.76160        0.98844
H         -3.09763       -1.05222        1.56665
C         -4.56865       -2.48614       -1.15189
H         -4.63460       -2.33932       -2.23155
C         -4.34371       -2.82019        1.63368
C         -4.20321       -2.98162        3.11919
H         -3.14196       -3.02168        3.40900
H         -4.65199       -2.12813        3.65249
H         -4.69515       -3.89800        3.47380
C         -5.22949       -3.52805       -0.51148
H         -5.83804       -4.22148       -1.09708
C         -5.11176       -3.70207        0.86825
H         -5.62637       -4.53235        1.35840
C         -2.76511        2.03880        0.72020
C         -3.79883        2.28357       -0.18120
H         -3.97437        1.59355       -1.00629
C         -2.54632        2.89817        1.80059
H         -1.74039        2.66651        2.49866
C         -4.61658        3.41034       -0.02650
C         -5.71810        3.66465       -1.01460
H         -5.31739        3.76109       -2.03614
H         -6.43813        2.83108       -1.02844
H         -6.26960        4.58494       -0.77706
C         -3.36191        4.01182        1.95707
H         -3.19633        4.68707        2.80030
C         -4.38762        4.27344        1.04784
H         -5.02111        5.15459        1.17695
C          2.07371        0.04000        3.33144
H          2.51107       -0.96013        3.30300
C          1.09363        1.92910        2.19438
H          0.75344        2.41271        1.27646
C          1.95648        0.71662        4.54205
H          2.29921        0.23425        5.46146
C          0.98941        2.59949        3.40741
H          0.57329        3.61068        3.42661
C          1.41240        2.00465        4.60319
C          1.25848        2.71923        5.91308
H          1.39709        3.80432        5.79938
H          0.24840        2.56087        6.32676
H          1.97880        2.35536        6.65948
C          3.52007       -2.03037       -0.04364
C          3.79431       -1.79134       -1.38719
H          3.71903       -0.77106       -1.77035
C          3.59317       -3.31810        0.48480
H          3.35371       -3.47788        1.53703
C          4.15005       -2.84568       -2.23669
C          4.44145       -2.57812       -3.68474
H          3.61088       -2.03651       -4.16363
H          5.34134       -1.95257       -3.79832
H          4.60694       -3.51057       -4.24194
C          3.95432       -4.36784       -0.35385
H          4.01349       -5.38295        0.04593
C          4.22675       -4.13616       -1.70277
H          4.50073       -4.97113       -2.35265
C          2.99967        1.84842       -0.55786
C          4.04079        1.89812        0.36688
H          4.10003        1.15829        1.16458
C          2.93305        2.77274       -1.60428
H          2.11186        2.69581       -2.31843
C          5.02309        2.89241        0.26810
C          6.13353        2.93571        1.27768
H          5.73517        3.04324        2.29892
H          6.72274        2.00514        1.25858
H          6.81822        3.77424        1.08941
C          3.90962        3.75574       -1.70303
H          3.86229        4.48186       -2.51839
C          4.94696        3.82170       -0.77200
H          5.70892        4.60050       -0.85674
