78
Cat302.ts34.5.log	Energy: -2763840.1786921
C         -0.78825       -0.54979       -3.50007
H         -0.58409       -1.49464       -4.01158
H         -1.82581       -0.21178       -3.59044
C          0.24897        0.44855       -3.52829
H          1.22697        0.20957       -3.95716
H         -0.04546        1.48599       -3.72948
H          0.32455        0.99105       -2.06330
Ir         0.06126       -0.58437       -1.52108
C         -1.59319        1.91026        0.39106
C         -3.38992        0.32550       -1.20400
C         -2.35189       -0.77384        1.11351
C          2.01140       -1.55463        1.25318
C          3.49764       -0.39935       -0.89408
C          2.01069        1.29281        0.82140
P          1.85206       -0.30333       -0.07278
P         -1.77471        0.23075       -0.31983
C          0.25802       -2.46122       -1.46834
O          0.37705       -3.61041       -1.41383
C         -1.30928        2.13929        1.74266
H         -1.26620        1.30211        2.44232
C         -1.60844        3.00850       -0.48257
H         -1.78865        2.85004       -1.54957
C         -1.07896        3.42759        2.22029
H         -0.84203        3.61518        3.26879
C         -1.40174        4.30175       -0.01673
H         -1.42704        5.16337       -0.68649
C         -1.14064        4.49525        1.33580
F         -0.92223        5.72855        1.78298
C         -3.74845       -0.79846       -1.96112
H         -3.04705       -1.63436       -2.03796
C         -4.29636        1.38675       -1.10949
H         -4.05313        2.26856       -0.51317
C         -4.97614       -0.86610       -2.60942
H         -5.25330       -1.74408       -3.19498
C         -5.52536        1.33706       -1.76392
H         -6.23059        2.16668       -1.69144
C         -5.85885        0.20983       -2.51162
Cl        -7.38408        0.14319       -3.32714
C         -3.36838       -0.31073        1.96263
H         -3.80646        0.67791        1.80426
C         -1.84169       -2.05664        1.31481
H         -1.06185       -2.42832        0.64824
C         -3.83582       -1.09494        3.00964
H         -4.62059       -0.73322        3.67591
C         -2.30841       -2.86080        2.35298
H         -1.90161       -3.86111        2.50877
C         -3.29611       -2.36956        3.20137
Cl        -3.86631       -3.34748        4.51015
C          2.93968       -2.59830        1.17187
H          3.64782       -2.63683        0.34173
C          1.10658       -1.53621        2.32368
H          0.35942       -0.74291        2.39207
C          2.97219       -3.59893        2.14035
H          3.68724       -4.42159        2.08656
C          1.13673       -2.52104        3.30417
H          0.43490       -2.51620        4.14003
C          2.07189       -3.54510        3.19639
F          2.10111       -4.49570        4.12585
C          3.60461       -1.02989       -2.13668
H          2.69473       -1.42089       -2.60300
C          4.65252        0.11825       -0.29348
H          4.58919        0.62364        0.67307
C          4.83837       -1.15626       -2.77039
H          4.92395       -1.65104       -3.73917
C          5.88972        0.00517       -0.91781
H          6.79081        0.41118       -0.45537
C          5.97506       -0.63521       -2.15535
Cl         7.51205       -0.77626       -2.93674
C          2.41421        1.39473        2.15719
H          2.62260        0.49477        2.73884
C          1.77360        2.46883        0.09993
H          1.44639        2.40432       -0.94039
C          2.55554        2.63928        2.76771
H          2.85629        2.71747        3.81373
C          1.93305        3.71589        0.68899
H          1.74196        4.63041        0.12635
C          2.31090        3.79400        2.02939
Cl         2.44436        5.34191        2.78857
