102
Cat313.ts34.5.log	Energy: -1807756.6527118
C          0.39119       -1.97824       -2.97533
H          0.05610       -1.74923       -3.99085
H          1.45450       -2.22977       -2.90343
C         -0.51774       -2.69573       -2.12309
H         -1.53202       -2.91508       -2.46739
H         -0.11121       -3.48996       -1.48537
H         -0.43715       -1.92403       -0.71730
Ir        -0.38170       -0.50916       -1.59945
C          2.69664       -1.53643       -0.26477
C          2.71456        0.89553       -1.90173
C          1.80521        1.03702        0.91087
C         -1.66565        2.02712        0.52086
C         -3.56681        0.64770       -1.15048
C         -2.47993       -0.55535        1.38369
P         -1.99707        0.34860       -0.17972
P          1.70461       -0.04147       -0.63129
C         -0.79186        0.73109       -2.96175
O         -1.02050        1.51292       -3.78823
C          2.52451       -2.20351        0.95940
H          1.92295       -1.75381        1.74874
C          3.47391       -2.16988       -1.24528
H          3.62173       -1.70409       -2.22072
C          3.12314       -3.43228        1.21056
H          3.00116       -3.93690        2.17064
C          4.07624       -3.40527       -1.01271
H          4.68286       -3.89532       -1.77632
C          3.89683       -4.02171        0.21713
F          4.47281       -5.20006        0.44980
H          2.88613        0.16619       -2.70751
H          1.98972        1.60674       -2.31803
C          3.98178        1.57648       -1.48617
C          5.17750        0.85149       -1.38886
H          5.17790       -0.21031       -1.63883
C          3.99380        2.95515       -1.17720
C          2.77892        3.82136       -1.36613
H          1.90651        3.47017       -0.79500
H          2.47159        3.85029       -2.42454
H          2.98432        4.85347       -1.05091
C          6.35850        1.44662       -0.95629
H          7.27305        0.85345       -0.88514
C          5.18704        3.53410       -0.72920
H          5.19322        4.59849       -0.47922
C          6.36042        2.79500       -0.60849
H          7.27556        3.27585       -0.25548
H          2.12976        2.01414        0.52584
H          0.76476        1.17036        1.22739
C          2.68501        0.65786        2.06851
C          4.07628        0.69205        1.92435
H          4.50129        0.99952        0.96920
C          2.13832        0.27268        3.31108
C          0.65547        0.22080        3.54451
H          0.17279       -0.55181        2.92350
H          0.16532        1.17851        3.30959
H          0.43267       -0.02324        4.59208
C          4.92550        0.33281        2.96473
H          6.00727        0.36611        2.81592
C          3.00679       -0.08635        4.34878
H          2.58071       -0.38756        5.30992
C          4.38877       -0.06638        4.18589
H          5.04165       -0.35524        5.01296
C         -1.03893        2.96108       -0.31750
H         -0.75733        2.66620       -1.33066
C         -1.99405        2.42570        1.82373
H         -2.50380        1.74317        2.50440
C         -0.75173        4.24945        0.12015
H         -0.26952        4.98063       -0.53104
C         -1.69257        3.70605        2.28517
H         -1.93773        4.01854        3.30182
C         -1.07481        4.60413        1.42521
F         -0.78636        5.82768        1.85775
H         -3.27719        1.48128       -1.81186
H         -3.63635       -0.23090       -1.80196
C         -4.86137        0.93399       -0.45464
C         -5.02315        2.10867        0.29266
H         -4.19774        2.82072        0.34692
C         -5.94896        0.04056       -0.57147
C         -5.85993       -1.20585       -1.40765
H         -5.01693       -1.85005       -1.11204
H         -5.72136       -0.96504       -2.47409
H         -6.77960       -1.80016       -1.31869
C         -6.21536        2.39084        0.95279
H         -6.31301        3.31262        1.53118
C         -7.14287        0.34449        0.09374
H         -7.98502       -0.34730        0.00447
C         -7.28096        1.49911        0.85884
H         -8.22423        1.70702        1.36938
H         -1.74682       -0.18534        2.11465
H         -3.46183       -0.16749        1.69045
C         -2.43642       -2.05607        1.38873
C         -1.18437       -2.68701        1.35442
H         -0.28586       -2.06988        1.33119
C         -3.59412       -2.85307        1.49601
C         -4.95273       -2.26874        1.75500
H         -5.13942       -1.33234        1.21736
H         -5.07274       -2.04673        2.82927
H         -5.74703       -2.97698        1.48028
C         -1.05710       -4.07142        1.34170
H         -0.06371       -4.52553        1.30746
C         -3.45130       -4.24754        1.46284
H         -4.35063       -4.86608        1.53051
C         -2.20528       -4.85940        1.37137
H         -2.13124       -5.94921        1.34784
