78
Cat301.ts34.5.log	Energy: -1859528.3951347
C         -1.03435       -0.16410       -3.52065
H         -0.82240       -1.02967       -4.15486
H         -2.09691        0.09526       -3.46912
C         -0.07886        0.91350       -3.54357
H          0.85845        0.79823       -4.09600
H         -0.46187        1.93974       -3.60098
H          0.07909        1.30924       -2.02728
Ir         0.01528       -0.32751       -1.65158
C         -1.72397        1.76945        0.60454
C         -3.47682        0.10127       -0.94848
C         -2.07058       -1.05161        1.15850
C          1.74646       -1.18787        1.29615
C          3.44535       -0.47383       -0.88123
C          2.08843        1.57490        0.58117
P          1.79469       -0.08087       -0.16532
P         -1.78644        0.13262       -0.22001
C          0.43926       -2.15127       -1.89255
O          0.70538       -3.26999       -2.02539
C         -1.34663        1.94208        1.94068
H         -1.20242        1.07007        2.58063
C         -1.90101        2.91368       -0.18999
H         -2.17101        2.80375       -1.24422
C         -1.14674        3.21400        2.47504
H         -0.83688        3.35580        3.51185
C         -1.72922        4.18879        0.33453
H         -1.87284        5.08335       -0.27446
C         -1.34220        4.32246        1.66461
F         -1.14123        5.54043        2.16111
C         -3.77550       -0.97854       -1.79167
H         -2.99099       -1.70457       -2.02355
C         -4.48561        1.02563       -0.65526
H         -4.28338        1.86772        0.00998
C         -5.04706       -1.13640       -2.33121
H         -5.29178       -1.97417       -2.98657
C         -5.76120        0.88620       -1.19876
H         -6.55656        1.60149       -0.98130
C         -6.02514       -0.19475       -2.02998
F         -7.24180       -0.33218       -2.55114
C         -3.01154       -0.79212        2.16606
H         -3.56320        0.15136        2.17130
C         -1.41597       -2.28531        1.14913
H         -0.69306       -2.49339        0.35882
C         -3.26353       -1.72716        3.16328
H         -3.98844       -1.53910        3.95734
C         -1.67203       -3.24033        2.12961
H         -1.16297       -4.20528        2.13428
C         -2.58576       -2.94304        3.13070
F         -2.82757       -3.84126        4.08122
C          2.14038       -2.52566        1.15552
H          2.56425       -2.87500        0.21110
C          1.18992       -0.77536        2.51283
H          0.86613        0.25897        2.63794
C          1.99063       -3.42699        2.20502
H          2.29192       -4.47149        2.10715
C          1.04036       -1.66452        3.57254
H          0.60236       -1.35475        4.52282
C          1.44097       -2.98313        3.40234
F          1.28493       -3.84501        4.40318
C          3.57739       -0.54502       -2.27045
H          2.67911       -0.42016       -2.88251
C          4.58009       -0.67076       -0.08197
H          4.49885       -0.64445        1.00668
C          4.81385       -0.79354       -2.86139
H          4.93038       -0.85525       -3.94478
C          5.82001       -0.92547       -0.65603
H          6.71177       -1.08822       -0.04816
C          5.92022       -0.97865       -2.04337
F          7.10510       -1.22234       -2.59531
C          1.53364        2.71030       -0.01428
H          0.88429        2.58811       -0.88282
C          2.90610        1.74466        1.70893
H          3.35094        0.87902        2.20308
C          1.77710        3.98371        0.49110
H          1.33776        4.87326        0.03746
C          3.15073        3.00857        2.23378
H          3.77866        3.15054        3.11509
C          2.58082        4.11619        1.61460
F          2.80828        5.32612        2.11500
