94
Cat339.ts34.5.log	Energy: -2350057.9131302
C         -1.05126        0.70241       -3.61082
H         -0.76250        0.04659       -4.43629
H         -2.13406        0.80990       -3.49198
C         -0.22970        1.86193       -3.36458
H          0.70382        1.98986       -3.91987
H         -0.73176        2.81602       -3.16433
H         -0.08358        1.89714       -1.79567
Ir         0.08071        0.22461       -1.83613
C         -2.64116        1.19919        0.28270
O         -2.76136       -1.23580       -0.95237
O         -1.03294       -0.85856        0.98154
C          2.39374       -1.04953        0.46311
O          2.96765        1.42196       -0.64270
O          1.12479        1.26527        1.08246
P          1.67519        0.45688       -0.25832
P         -1.63572       -0.15775       -0.40115
C          0.74961       -1.43079       -2.50227
O          1.12194       -2.46330       -2.85625
C         -2.16506        1.89695        1.40034
H         -1.26815        1.54242        1.91287
C         -3.75381        1.69518       -0.40871
H         -4.13527        1.17596       -1.29098
C         -2.80258        3.05280        1.83934
H         -2.43415        3.59869        2.70947
C         -4.40042        2.84782        0.02477
H         -5.27655        3.22917       -0.50184
C         -3.92208        3.51902        1.15005
Cl        -4.72240        4.95484        1.69212
C         -4.10469       -1.40476       -0.72485
C         -4.67662       -1.33606        0.54196
H         -4.05248       -1.13596        1.41153
C         -4.87636       -1.68562       -1.86468
C         -4.22428       -1.76102       -3.21046
H         -4.94985       -2.04169       -3.98564
H         -3.77218       -0.79682       -3.49209
H         -3.40141       -2.49199       -3.21321
C         -6.04763       -1.53591        0.68833
H         -6.49247       -1.48118        1.68437
C         -6.24730       -1.88637       -1.68600
H         -6.86269       -2.10842       -2.56214
C         -6.83715       -1.80932       -0.42495
H         -7.91189       -1.96893       -0.31388
C         -1.60745       -1.77022        1.82543
C         -2.18600       -1.33360        3.01649
H         -2.20921       -0.26441        3.23236
C         -1.52440       -3.13395        1.49935
C         -0.84324       -3.57978        0.24235
H         -1.40513       -3.26513       -0.64985
H          0.15784       -3.13071        0.15824
H         -0.73865       -4.67249        0.21973
C         -2.73329       -2.26157        3.90014
H         -3.19198       -1.92061        4.83103
C         -2.08505       -4.04017        2.40482
H         -2.03709       -5.10733        2.17217
C         -2.69033       -3.61823        3.58781
H         -3.11956       -4.35397        4.27149
C          3.27002       -1.84637       -0.28479
H          3.62522       -1.51619       -1.26312
C          1.93010       -1.51719        1.69777
H          1.20552       -0.92729        2.25992
C          3.70120       -3.07364        0.20521
H          4.38957       -3.69328       -0.37081
C          2.34750       -2.74839        2.19284
H          1.97438       -3.12138        3.14779
C          3.23613       -3.51748        1.44328
Cl         3.75696       -5.05184        2.04916
C          4.29826        1.08829       -0.70139
C          5.04419        0.94338        0.46391
H          4.55603        1.09405        1.42792
C          4.86883        0.93023       -1.97338
C          4.03129        1.12010       -3.20108
H          4.59589        0.86626       -4.10820
H          3.11581        0.50747       -3.16662
H          3.69325        2.16588       -3.28344
C          6.39464        0.61270        0.37591
H          6.98254        0.49284        1.28859
C          6.22593        0.60082       -2.03111
H          6.69323        0.46885       -3.01079
C          6.98545        0.43596       -0.87289
H          8.04288        0.17294       -0.94880
C          1.84909        2.14826        1.84830
C          2.52472        1.70174        2.98188
H          2.51214        0.63956        3.22791
C          1.82625        3.50570        1.49269
C          1.08388        3.95313        0.27236
H          1.58668        3.59107       -0.63848
H          0.06209        3.54324        0.25797
H          1.02698        5.04880        0.22396
C          3.20936        2.61424        3.78315
H          3.73979        2.26394        4.67147
C          2.51936        4.39816        2.31513
H          2.51472        5.46042        2.05645
C          3.20929        3.96523        3.44669
H          3.74313        4.68729        4.06844
