90
Cat304.ts34.5.log	Energy: -1709149.9059177
C          1.30674       -2.14922       -2.27909
H          0.98939       -2.16025       -3.32572
H          2.38667       -2.02633       -2.14217
C          0.60970       -3.00346       -1.36627
H         -0.24987       -3.58407       -1.71146
H          1.19830       -3.51963       -0.59791
H          0.26897       -2.05943       -0.09002
Ir         0.00585       -0.81756       -1.16605
C          2.81320       -1.20747        0.78936
C          3.20904        0.82865       -1.16881
C          1.66369        1.49214        1.14802
C         -1.99339        1.52948        0.53020
C         -3.46348       -0.42524       -1.07306
C         -2.41373       -1.13346        1.51086
P         -1.94859       -0.22050       -0.02993
P          1.88872        0.13329       -0.07387
C         -0.63395        0.11134       -2.68264
O         -1.03516        0.70021       -3.59497
C          2.23091       -1.88982        1.87099
H          1.27546       -1.55446        2.27636
C          4.01033       -1.71563        0.26544
H          4.48379       -1.22125       -0.58498
C          2.83466       -3.00658        2.43754
H          2.38768       -3.52825        3.28591
C          4.61795       -2.84605        0.81006
H          5.54839       -3.24313        0.40017
C          4.02731       -3.47489        1.89623
F          4.60483       -4.55071        2.42652
C          2.98890        0.75713       -2.54863
H          2.06143        0.29901       -2.89781
C          4.38887        1.44311       -0.68384
C          4.71203        1.61149        0.77294
H          4.44053        0.73094        1.36881
H          4.16293        2.46450        1.20206
H          5.78640        1.80093        0.90609
C          3.90310        1.27220       -3.46224
H          3.70092        1.20551       -4.53354
C          5.29705        1.95062       -1.62264
H          6.21247        2.42456       -1.25762
C          5.06695        1.87332       -2.99341
H          5.79938        2.28474       -3.69236
C          1.75154        1.26730        2.52750
H          2.00649        0.27641        2.90214
C          1.37072        2.79522        0.67918
C          1.28032        3.13972       -0.77795
H          0.77688        2.34691       -1.35143
H          2.27926        3.27119       -1.22157
H          0.72442        4.07629       -0.91537
C          1.56684        2.29654        3.44529
H          1.65058        2.09003        4.51490
C          1.19867        3.81515        1.62227
H          0.97175        4.82276        1.26364
C          1.29469        3.58301        2.99037
H          1.15071        4.40493        3.69562
C         -1.90852        2.56042       -0.41624
H         -1.81044        2.32470       -1.47799
C         -2.03324        1.87070        1.88797
H         -2.06209        1.08677        2.64671
C         -1.93620        3.89517       -0.02563
H         -1.88428        4.70429       -0.75629
C         -2.03275        3.20151        2.29287
H         -2.04531        3.47522        3.34883
C         -1.99650        4.19786        1.32812
F         -1.98213        5.47500        1.70951
C         -4.18880        0.67623       -1.54178
H         -3.90583        1.68355       -1.23789
C         -3.87832       -1.72702       -1.44080
C         -3.18714       -2.96479       -0.95662
H         -3.45673       -3.19542        0.08621
H         -2.09529       -2.83214       -0.98631
H         -3.45818       -3.83058       -1.57662
C         -5.29540        0.52088       -2.37088
H         -5.83813        1.40221       -2.72014
C         -4.99528       -1.85912       -2.27361
H         -5.31300       -2.86554       -2.55980
C         -5.70202       -0.75616       -2.74268
H         -6.56720       -0.89650       -3.39493
C         -1.46474       -2.00729        2.04731
H         -0.51818       -2.11512        1.51708
C         -3.66761       -0.99936        2.15727
C         -4.78433       -0.12162        1.67109
H         -5.31417       -0.58827        0.82628
H         -4.42972        0.85551        1.32028
H         -5.51273        0.04603        2.47658
C         -1.70456       -2.74595        3.20117
H         -0.93823       -3.42194        3.58774
C         -3.88867       -1.75158        3.31932
H         -4.85269       -1.65068        3.82521
C         -2.93097       -2.61468        3.84358
H         -3.14767       -3.18313        4.75125
