90
Cat325.ts34.5.log	Energy: -2066346.4149143
C          1.89278        0.60513       -2.89853
H          2.11843        1.61010       -3.26563
H          2.78041        0.01487       -2.64960
C          0.76397       -0.06452       -3.49092
H          0.11994        0.47256       -4.19238
H          0.87496       -1.12484       -3.74831
H         -0.03227       -0.68020       -2.29048
Ir         0.33564        0.70833       -1.40315
C          3.16213       -0.94262       -0.06781
O          1.65042        0.26827        1.66416
O          0.77912       -1.95413        0.63993
C         -2.46319       -0.62225        0.34477
O         -2.57460        1.93256       -0.02986
O         -2.79847        0.42634       -2.11260
P         -1.85326        0.66821       -0.79139
P          1.41853       -0.49516        0.22161
C          0.62003        2.56791       -1.19771
O          0.86980        3.69007       -1.06681
C          3.43573       -1.92788       -1.02603
H          2.60852       -2.45119       -1.51517
C          4.22713       -0.28267        0.55096
H          4.01713        0.47915        1.30348
C          4.74543       -2.25712       -1.35746
H          4.96288       -3.02744       -2.09900
C          5.54329       -0.59898        0.22401
H          6.37877       -0.08868        0.70613
C          5.79447       -1.58506       -0.72864
Cl         7.42881       -1.98271       -1.13923
C          0.63874        1.07994        2.23961
H          0.03223        1.52932        1.43331
H         -0.02896        0.44511        2.84731
C          1.27290        2.15581        3.09134
H          0.45746        2.70010        3.60009
H          1.86923        1.67960        3.88981
C          2.13594        3.13469        2.30856
H          1.53544        3.58289        1.50028
H          2.93978        2.57704        1.80051
C          2.73264        4.22952        3.17666
H          1.94474        4.82897        3.66177
H          3.36395        3.81037        3.97706
H          3.35592        4.91855        2.58708
C          1.37546       -2.86484        1.55849
H          0.93281       -3.84516        1.31677
H          2.46001       -2.93328        1.36747
C          1.11811       -2.52162        3.01392
H          1.60834       -3.29859        3.62738
H          1.62381       -1.57235        3.25188
C         -0.35863       -2.43434        3.36220
H         -0.83712       -3.41051        3.17218
H         -0.84220       -1.73073        2.66663
C         -0.62950       -2.00744        4.79373
H         -0.16969       -2.69954        5.51771
H         -0.22228       -1.00321        4.99709
H         -1.71019       -1.97966        5.00128
C         -2.19751       -1.95630        0.01629
H         -1.58526       -2.18688       -0.85817
C         -3.20758       -0.33498        1.49314
H         -3.41954        0.70517        1.74484
C         -2.68402       -2.99104        0.80515
H         -2.47698       -4.03270        0.55581
C         -3.68133       -1.36328        2.30460
H         -4.25191       -1.14744        3.20928
C         -3.41672       -2.68438        1.95173
Cl        -3.96045       -3.96621        2.98153
C         -2.63020        3.22725       -0.61185
H         -1.72756        3.41017       -1.21726
H         -3.49742        3.27365       -1.29324
C         -2.76179        4.25820        0.48751
H         -2.91196        5.24267        0.01115
H         -3.68248        4.04800        1.06032
C         -1.56487        4.30837        1.42618
H         -0.66037        4.54361        0.84185
H         -1.40377        3.30013        1.84090
C         -1.72433        5.30916        2.55778
H         -1.85893        6.33333        2.17396
H         -2.60114        5.07453        3.18299
H         -0.84033        5.31667        3.21397
C         -4.20927        0.26972       -2.03767
H         -4.49235       -0.19897       -1.07860
H         -4.68423        1.26509       -2.07423
C         -4.66814       -0.58695       -3.19664
H         -5.77140       -0.62804       -3.17495
H         -4.39273       -0.08441       -4.14004
C         -4.09064       -1.99493       -3.17462
H         -4.36741       -2.48463       -2.22412
H         -2.99084       -1.91884       -3.16551
C         -4.54282       -2.84688       -4.34861
H         -5.63886       -2.96099       -4.36505
H         -4.24608       -2.39356       -5.30816
H         -4.10543       -3.85602       -4.30940
