82
Cat309.ts34.5.log	Energy: -2048278.1284861
C          1.23744        0.41348        3.57640
H          0.97818       -0.26972        4.38919
H          2.31548        0.50767        3.41347
C          0.40644        1.57973        3.40770
H         -0.50411        1.68277        4.00366
H          0.89558        2.54593        3.22820
H          0.19396        1.66883        1.86684
Ir         0.02774       -0.00590        1.84032
C          2.90363        0.91889       -0.23125
O          2.82004       -1.45505        1.05889
O          1.44793       -1.04321       -1.08763
C         -2.87937       -0.85861       -0.20837
O         -2.78393        1.48847        1.13756
O         -1.39394        1.11890       -0.98966
P         -1.73170        0.37221        0.46271
P          1.75562       -0.34091        0.39793
C         -0.54401       -1.67334        2.55182
O         -0.81748       -2.71025        2.97806
C          3.65972        0.74688       -1.39895
H          3.52773       -0.15450       -1.99922
C          3.06929        2.08183        0.52614
H          2.46316        2.22883        1.42292
C          4.56748        1.71988       -1.79832
H          5.16633        1.60779       -2.70397
C          3.98389        3.05872        0.14334
H          4.11794        3.97907        0.71349
C          4.71890        2.86326       -1.01871
F          5.58598        3.79365       -1.40071
C          4.00033       -1.80450        0.45521
C          4.02338       -2.78145       -0.54109
H          3.09353       -3.26582       -0.84296
C          5.18225       -1.18135        0.85729
H          5.13934       -0.41672        1.63468
C          5.23056       -3.12926       -1.14239
H          5.27801       -3.89062       -1.92298
C          6.39081       -1.52683        0.26101
H          7.32839       -1.05227        0.55547
C          6.39872       -2.49522       -0.73627
F          7.55341       -2.82502       -1.31434
C          0.49032       -2.00020       -1.27153
C          0.27193       -3.02373       -0.34516
H          0.88037       -3.08114        0.55787
C         -0.26908       -1.93983       -2.43998
H         -0.07768       -1.13880       -3.15477
C         -0.73394       -3.95924       -0.57108
H         -0.93787       -4.75062        0.15184
C         -1.26330       -2.88316       -2.67606
H         -1.87842       -2.84929       -3.57631
C         -1.49528       -3.87246       -1.72876
F         -2.47658       -4.75274       -1.93390
C         -3.48721       -0.68706       -1.45972
H         -3.20537        0.16181       -2.08291
C         -3.24466       -1.95180        0.58453
H         -2.78656       -2.10074        1.56258
C         -4.44109       -1.59078       -1.91033
H         -4.92589       -1.47402       -2.88107
C         -4.19874       -2.86284        0.14249
H         -4.48548       -3.72733        0.74291
C         -4.78313       -2.67011       -1.10262
F         -5.69188       -3.53608       -1.53314
C         -3.99414        1.78574        0.55834
C         -4.07842        2.71010       -0.48314
H         -3.17494        3.20187       -0.84608
C         -5.14299        1.15058        1.03096
H         -5.05162        0.42822        1.84354
C         -5.31492        2.99473       -1.05808
H         -5.41020        3.71384       -1.87355
C         -6.37962        1.43087        0.45931
H         -7.29216        0.94400        0.80744
C         -6.44931        2.34848       -0.58283
F         -7.63124        2.61611       -1.13656
C         -0.48342        2.12561       -1.13811
C         -0.42284        3.21276       -0.26036
H         -1.11178        3.26727        0.58376
C          0.38010        2.06032       -2.23127
H          0.32061        1.20032       -2.89811
C          0.51824        4.21797       -0.46892
H          0.59351        5.07160        0.20699
C          1.31251        3.06886       -2.44822
H          2.00719        3.03012       -3.28827
C          1.37933        4.12969       -1.55493
F          2.29897        5.07809       -1.73641
