78
Cat330.ts34.5.log	Energy: -2311684.7812465
C         -1.07695        0.17141       -3.64203
H         -0.82167       -0.59693       -4.37743
H         -2.15211        0.35962       -3.55492
C         -0.18617        1.29828       -3.53669
H          0.75091        1.30660       -4.10123
H         -0.62911        2.29939       -3.46621
H         -0.03381        1.51462       -1.98416
Ir         0.00196       -0.15607       -1.81140
C         -1.77829        1.58139        0.67582
C         -3.49921        0.02641       -1.02374
C         -2.00463       -1.30204        0.91844
C          1.78887       -1.25528        1.00342
C          3.44684       -0.22773       -1.07845
C          2.01239        1.58896        0.60216
P          1.78704        0.01388       -0.32067
P         -1.79966        0.04193       -0.31935
C          0.50991       -1.91739       -2.26297
O          0.82534       -3.00013       -2.52375
C         -1.36334        1.62758        2.01056
H         -1.18441        0.69967        2.55568
C         -2.01126        2.79613        0.01139
H         -2.31888        2.78895       -1.03825
C         -1.16242        2.84279        2.66230
H         -0.81466        2.87110        3.69612
C         -1.84099        4.01444        0.65566
H         -2.02558        4.95512        0.13400
C         -1.39819        4.03163        1.97961
Cl        -1.09688        5.54600        2.76023
C         -3.76887       -0.95069       -1.99240
H         -2.95941       -1.60636       -2.32585
C         -4.53976        0.86090       -0.60017
H         -4.35955        1.62087        0.16318
C         -5.04356       -1.09542       -2.52856
H         -5.26628       -1.85384       -3.28117
C         -5.81898        0.73461       -1.13776
H         -6.63927        1.38060       -0.81940
C         -6.05395       -0.24366       -2.09551
F         -7.27405       -0.36810       -2.61143
C         -2.90535       -1.18877        1.98767
H         -3.47766       -0.26838        2.12849
C         -1.32517       -2.50896        0.73450
H         -0.63040       -2.60186       -0.10174
C         -3.09002       -2.24116        2.87730
H         -3.78117       -2.16695        3.71886
C         -1.51765       -3.57997        1.60273
H         -0.98569       -4.52368        1.47503
C         -2.38893       -3.42654        2.67187
F         -2.56761       -4.43560        3.51857
C          2.23685       -2.54992        0.71006
H          2.68886       -2.76651       -0.26079
C          1.20462       -1.01519        2.25221
H          0.84386       -0.01592        2.49884
C          2.09863       -3.57922        1.63590
H          2.43903       -4.58915        1.40177
C          1.06590       -2.03355        3.18910
H          0.59749       -1.84498        4.15620
C          1.50652       -3.31572        2.87055
Cl         1.27641       -4.60350        4.00229
C          3.56901       -0.17933       -2.46939
H          2.65983       -0.05004       -3.06444
C          4.59729       -0.42692       -0.30257
H          4.52474       -0.48820        0.78536
C          4.81135       -0.31517       -3.08442
H          4.92131       -0.28305       -4.16978
C          5.84325       -0.56956       -0.90134
H          6.74811       -0.73188       -0.31305
C          5.93303       -0.50716       -2.28923
F          7.12382       -0.64330       -2.86467
C          2.78772        1.66422        1.76921
H          3.24075        0.76458        2.18986
C          1.44969        2.76630        0.10166
H          0.83355        2.71861       -0.79790
C          2.97909        2.87478        2.42618
H          3.57213        2.94191        3.33996
C          1.64357        3.98796        0.73816
H          1.19525        4.90831        0.36165
C          2.40221        4.02581        1.89979
F          2.58110        5.18373        2.52533
