98
Cat322.ts34.5.log	Energy: -1976204.8049371
C          0.87303       -2.73780       -2.14804
H          1.00520       -3.77853       -1.83860
H          0.12910       -2.61490       -2.94298
C          2.06105       -1.91750       -2.21183
H          3.01159       -2.31699       -1.84650
H          2.20153       -1.28035       -3.09419
H          1.59885       -0.55311       -1.58668
Ir         0.74829       -1.44289       -0.43959
C         -0.95247        1.47282       -1.45347
C         -2.14204       -0.92152       -2.48778
C         -2.49050       -0.24247        0.29503
C          0.20914        0.51569        2.42762
C          2.82042       -0.58800        2.30362
C          2.08551        1.68687        0.61551
P          1.48872        0.04122        1.18983
P         -1.20818       -0.29283       -1.02279
C          0.54195       -2.84299        0.80541
O          0.40652       -3.68823        1.58931
C         -1.32502        2.53517       -0.62030
H         -1.89861        2.34868        0.28880
C         -0.20355        1.76933       -2.60345
H          0.12818        0.95718       -3.25647
C         -0.94968        3.84709       -0.91104
H         -1.23114        4.66780       -0.24883
C          0.16353        3.07149       -2.91622
H          0.75138        3.29021       -3.80930
C         -0.20329        4.10814       -2.05616
Cl         0.30530        5.72853       -2.40333
H         -2.94733       -0.21509       -2.74820
H         -1.43530       -0.92546       -3.33462
C         -2.68406       -2.32626       -2.25690
H         -1.89292       -2.94864       -1.80417
H         -3.49921       -2.29050       -1.51348
C         -3.19521       -2.98894       -3.52813
H         -2.37370       -3.03828       -4.26646
H         -3.97426       -2.35486       -3.98971
C         -3.74954       -4.38804       -3.29931
H         -2.96756       -5.01166       -2.83138
H         -4.56910       -4.33545       -2.56071
C         -4.24760       -5.05662       -4.57026
H         -4.64153       -6.06492       -4.37202
H         -3.43899       -5.15591       -5.31233
H         -5.05397       -4.47104       -5.04076
H         -2.57262       -1.28457        0.64425
H         -2.02376        0.29133        1.13652
C         -3.86402        0.33938       -0.00913
H         -3.76872        1.32025       -0.50533
H         -4.40003       -0.30558       -0.72616
C         -4.69207        0.49211        1.26072
H         -4.13032        1.10877        1.98532
H         -4.79945       -0.49556        1.74512
C         -6.06775        1.10459        1.04600
H         -5.95146        2.09438        0.56943
H         -6.63459        0.49092        0.32337
C         -6.85983        1.24594        2.33616
H         -7.83859        1.71943        2.16600
H         -6.31275        1.85622        3.07265
H         -7.04085        0.26348        2.80116
C         -0.44610       -0.51292        3.12310
H         -0.14066       -1.55200        2.98167
C         -0.23303        1.82908        2.62384
H          0.25524        2.66181        2.11709
C         -1.52675       -0.24859        3.95594
H         -2.04178       -1.05763        4.47608
C         -1.32701        2.10821        3.44263
H         -1.68075        3.13257        3.57175
C         -1.97896        1.06425        4.09213
Cl        -3.37746        1.39594        5.05875
H          3.10678        0.21396        3.00557
H          2.34083       -1.38144        2.90186
C          4.02329       -1.16171        1.57084
H          3.65421       -1.83764        0.77909
H          4.57066       -0.35529        1.05358
C          4.97973       -1.91019        2.48798
H          4.43170       -2.72751        2.99109
H          5.32426       -1.23850        3.29567
C          6.18662       -2.48545        1.75993
H          5.83452       -3.14948        0.95086
H          6.73016       -1.66574        1.25702
C          7.13645       -3.24604        2.67090
H          7.99727       -3.64916        2.11618
H          6.62843       -4.09373        3.15823
H          7.53004       -2.59682        3.46973
H          1.17931        2.24320        0.32798
H          2.52903        2.20903        1.48105
C          3.03158        1.70181       -0.57441
H          3.96549        1.16146       -0.34757
H          2.55605        1.15051       -1.40227
C          3.34813        3.11920       -1.03167
H          3.92255        3.64638       -0.24828
H          2.40381        3.68098       -1.13776
C          4.10651        3.18019       -2.34935
H          5.06246        2.63570       -2.25092
H          3.52947        2.63153       -3.11544
C          4.36268        4.60118       -2.82512
H          4.89960        4.61970       -3.78568
H          4.96746        5.16353       -2.09553
H          3.41573        5.14892       -2.95691
