108
Cat356.ts34.5.log	Energy: -1544459.4071937
C         -0.98712        0.09996       -3.53403
H         -0.73464       -0.68566       -4.25199
H         -2.05428        0.34560       -3.52182
C         -0.04952        1.19156       -3.40357
H          0.90583        1.15007       -3.93501
H         -0.45307        2.21235       -3.37558
H          0.04922        1.42271       -1.85978
Ir         0.01887       -0.24940       -1.66861
C         -1.50188        1.57249        0.91832
C         -3.37043        0.64165       -1.05163
C         -2.18114       -1.24280        0.99759
C          1.48931       -1.09913        1.39088
C          3.33152       -0.93071       -0.79519
C          2.19727        1.57324        0.51801
P          1.78420       -0.11970       -0.13638
P         -1.78781        0.13604       -0.19201
C          0.45279       -2.03194       -2.07016
O          0.72756       -3.14019       -2.28946
C         -1.28078        1.48231        2.29559
H         -1.35277        0.52095        2.80417
C         -1.39671        2.84369        0.32790
H         -1.54691        2.95062       -0.75015
C         -0.93824        2.60996        3.04543
H         -0.75519        2.50067        4.11850
C         -1.08694        3.96690        1.08105
H         -1.02335        4.94173        0.58896
C         -0.83103        3.87113        2.45784
C         -0.42530        5.07910        3.24887
H          0.60169        5.39014        2.99218
H         -1.08249        5.93728        3.04066
H         -0.45191        4.88262        4.32987
H         -2.97759        1.32751       -1.82756
C         -4.42890        1.41939       -0.26751
H         -3.97545        2.26974        0.26309
H         -4.87471        0.77352        0.50493
C         -5.52958        1.90981       -1.20607
H         -6.29915        2.45308       -0.63351
H         -5.09881        2.63983       -1.91574
C         -6.15975        0.76188       -1.98779
H         -6.92070        1.14406       -2.68766
H         -6.69268        0.09735       -1.28330
C         -5.10702       -0.05024       -2.73470
H         -4.65453        0.57433       -3.52652
H         -5.57288       -0.90799       -3.24654
C         -4.00826       -0.53476       -1.79403
H         -4.45061       -1.22865       -1.05875
H         -3.23954       -1.10347       -2.34013
H         -1.29763       -1.22066        1.66374
C         -2.17603       -2.62376        0.33619
H         -1.25422       -2.74826       -0.24882
H         -3.00896       -2.69776       -0.38231
C         -2.30839       -3.73237        1.37548
H         -2.34327       -4.71251        0.87248
H         -1.40137       -3.73485        2.00269
C         -3.52811       -3.54611        2.26999
H         -3.56407       -4.33299        3.04154
H         -4.44759       -3.66093        1.66720
C         -3.52866       -2.16477        2.91360
H         -2.66594       -2.07880        3.60006
H         -4.43309       -2.02272        3.52781
C         -3.43630       -1.06871        1.85581
H         -4.32625       -1.13263        1.20745
H         -3.46646       -0.07391        2.32524
C          1.40128       -2.49583        1.26901
H          1.55159       -2.97167        0.29723
C          1.25991       -0.54085        2.65146
H          1.31312        0.53797        2.79661
C          1.10301       -3.29290        2.36587
H          1.05043       -4.37773        2.23795
C          0.93325       -1.34503        3.74473
H          0.74570       -0.87576        4.71493
C          0.84609       -2.73305        3.62586
C          0.45677       -3.60043        4.78567
H          0.48290       -3.04529        5.73380
H         -0.56698       -3.99032        4.65538
H          1.12306       -4.47145        4.87929
H          2.91007       -1.87817       -1.17888
C          4.44944       -1.30458        0.17855
H          4.04347       -1.83700        1.05213
H          4.93931       -0.39697        0.56307
C          5.49278       -2.16469       -0.53162
H          6.30645       -2.42349        0.16559
H          5.02711       -3.11992       -0.83468
C          6.05207       -1.46280       -1.76502
H          6.77591       -2.11314       -2.28272
H          6.61491       -0.56700       -1.44390
C          4.94104       -1.03704       -2.71945
H          4.45281       -1.93500       -3.13858
H          5.36021       -0.48281       -3.57513
C          3.88722       -0.19122       -2.01190
H          4.34497        0.75988       -1.68674
H          3.06044        0.06249       -2.69525
H          1.30326        1.79991        1.13036
C          2.26302        2.65907       -0.55877
H          1.36358        2.61391       -1.18874
H          3.12115        2.47168       -1.22620
C          2.39486        4.04410        0.06788
H          2.47609        4.80607       -0.72459
H          1.46672        4.26507        0.62136
C          3.57858        4.14003        1.02266
H          3.60500        5.13189        1.50332
H          4.52004        4.04741        0.45105
C          3.52814        3.03595        2.07189
H          2.64714        3.18497        2.72321
H          4.41378        3.08284        2.72639
C          3.43654        1.66314        1.41244
H          4.33471        1.51403        0.79041
H          3.44801        0.86564        2.16973
