116
Cat364.ts34.5.log	Energy: -2109829.5044524
C         -0.85970       -1.98045       -2.77237
H         -0.69262       -3.05982       -2.83411
H         -1.89396       -1.68420       -2.97948
C          0.20910       -1.13059       -3.23532
H          1.16644       -1.57829       -3.51448
H         -0.05308       -0.27363       -3.87035
H          0.29928       -0.03002       -2.16430
Ir         0.02800       -1.20071       -0.98535
C         -2.00435        1.78642       -0.57247
C         -3.37623       -0.78648       -0.90577
C         -2.15516       -0.00748        1.62252
C          1.58385        0.43424        1.79807
C          3.58367       -0.98480        0.30769
C          2.34499        1.22424       -0.96575
P          1.89147       -0.22907        0.10741
P         -1.85838       -0.03067       -0.19967
C         -0.07913       -2.86135       -0.11931
O         -0.24577       -3.90319        0.36420
C         -1.08522        2.36448       -1.44921
H         -0.30254        1.73538       -1.87828
C         -2.99375        2.61047       -0.02010
H         -3.74585        2.18792        0.64545
C         -1.15651        3.71442       -1.78387
H         -0.42193        4.12872       -2.48069
C         -3.05396        3.96253       -0.34593
H         -3.84088        4.58231        0.09499
C         -2.14027        4.54275       -1.23470
C         -2.19426        6.00787       -1.55733
H         -3.23007        6.37748       -1.58946
H         -1.66410        6.60288       -0.79369
H         -1.72164        6.22563       -2.52624
C         -3.81345       -2.01942       -0.38373
O         -3.13708       -2.45347        0.69052
C         -3.34313       -3.73531        1.20563
H         -2.60789       -3.85163        2.01043
H         -4.36230       -3.85417        1.61666
H         -3.16628       -4.51166        0.44255
C         -3.99146       -0.31849       -2.07907
O         -3.45115        0.78328       -2.63451
C         -4.05718        1.39074       -3.73484
H         -3.46754        2.29165       -3.94967
H         -5.09806        1.68823       -3.51727
H         -4.05168        0.73550       -4.62425
C         -5.07714       -0.99957       -2.64854
H         -5.56056       -0.61792       -3.54720
C         -4.88244       -2.71816       -0.95456
H         -5.21453       -3.66560       -0.53068
C         -5.51447       -2.18864       -2.07574
H         -6.35366       -2.72494       -2.52522
C         -3.33046        0.22776        2.24190
O         -4.46939        0.42842        1.51768
C         -5.58939       -0.35616        1.83973
H         -6.28563       -0.27361        0.99476
H         -5.31280       -1.41551        1.96310
H         -6.09890       -0.00722        2.75576
C         -0.92083       -0.25589        2.46134
O         -0.71233       -1.63484        2.42411
C          0.47058       -2.17396        2.94388
H          0.25248       -3.21629        3.21880
H          0.83343       -1.64391        3.84167
H          1.27929       -2.17972        2.19730
C         -0.99909        0.33808        3.88636
H         -0.39130       -0.28654        4.55926
C         -3.43670        0.42697        3.69005
H         -4.43554        0.56424        4.11069
C         -2.34932        0.52452        4.46962
H         -2.45211        0.72154        5.54142
C          2.53928        0.62887        2.72763
H          3.57316        0.35566        2.51596
C          0.16850        0.81398        2.08350
H         -0.18717        1.40243        1.22657
C          2.26750        1.28907        3.99802
H          3.10834        1.43057        4.68440
C         -0.11172        1.53941        3.43102
H         -0.71825        2.45080        3.29943
C          1.05873        1.78999        4.32705
C          0.79253        2.53396        5.59360
H          0.39249        3.54057        5.37963
H          0.02548        2.02383        6.20270
H          1.69854        2.64342        6.20645
C          4.74481       -0.18003        0.29756
O          4.56588        1.14469        0.46200
C          5.57055        2.04543        0.09598
H          5.11854        3.04498        0.13913
H          6.43130        2.01022        0.78688
H          5.92377        1.86152       -0.93307
C          3.77349       -2.38260        0.30654
O          2.68346       -3.14733        0.46126
C          2.79995       -4.54298        0.39574
H          1.78464       -4.93687        0.51097
H          3.44258       -4.93368        1.20383
H          3.20675       -4.86886       -0.57680
C          5.05329       -2.94142        0.16440
H          5.18529       -4.02159        0.14045
C          6.02342       -0.73037        0.14894
H          6.90343       -0.08853        0.12466
C          6.16067       -2.10986        0.06793
H          7.15520       -2.54860       -0.04427
C          2.98093        0.94153       -2.19128
O          3.23814       -0.35802       -2.43281
C          3.99890       -0.73179       -3.54162
H          4.12957       -1.81920       -3.47203
H          3.49038       -0.49179       -4.49235
H          4.99351       -0.25192       -3.53444
C          2.07409        2.57005       -0.66692
O          1.47075        2.82341        0.50627
C          1.19161        4.13777        0.89170
H          0.74072        4.07412        1.89008
H          0.47401        4.61834        0.20543
H          2.10972        4.74798        0.95479
C          2.42409        3.59456       -1.55960
H          2.19997        4.63295       -1.31960
C          3.33335        1.95778       -3.08745
H          3.82063        1.72104       -4.03250
C          3.04812        3.27881       -2.75963
H          3.31568        4.07773       -3.45532
