84
Cat386.ts34.5.log	Energy: -1535362.9700604
C         -0.73786       -1.81711       -2.73991
H         -0.40985       -2.85702       -2.82425
H         -1.80758       -1.67684       -2.93258
C          0.17353       -0.80107       -3.20582
H          1.18728       -1.08036       -3.51044
H         -0.23478        0.00502       -3.82965
H          0.14924        0.28081       -2.13329
Ir         0.06645       -0.93229       -0.95132
C         -2.14480        1.79512       -0.05596
C         -3.50468       -0.66008       -0.71337
C         -2.22073       -0.47846        1.73113
C          2.47857       -0.49585        1.62572
C          3.44095       -0.30100       -1.09352
C          2.06346        1.90451        0.07998
P          1.96025        0.07684       -0.04441
P         -1.90688       -0.03261       -0.03603
C          0.45691       -2.57586       -0.12054
O          0.70256       -3.58526        0.38850
C         -2.03404        2.53440        1.13066
H         -1.91066        2.01038        2.07916
C         -2.29924        2.48556       -1.28120
C         -2.42036        1.78387       -2.60390
H         -1.98291        0.77792       -2.57574
H         -1.92058        2.35956       -3.39709
H         -3.47575        1.66320       -2.89560
C         -2.07855        3.92512        1.12784
H         -1.98143        4.47263        2.06806
C         -2.35632        3.88400       -1.25872
H         -2.48356        4.41642       -2.20604
C         -2.24844        4.60622       -0.07364
H         -2.29023        5.69793       -0.09159
C         -3.58962       -2.03162       -0.98337
C         -4.63898        0.13856       -0.89697
C         -5.90595       -1.78765       -1.62395
C         -5.83078       -0.42213       -1.35505
C         -4.78302       -2.59230       -1.43090
H         -2.70424       -2.65630       -0.83557
H         -4.83509       -3.66480       -1.63351
H         -6.84058       -2.22581       -1.98228
H         -6.70838        0.21366       -1.49705
H         -4.59373        1.20796       -0.67480
C         -1.29294       -1.24464        2.43717
C         -3.41744       -0.11090        2.36472
C         -2.72341       -1.24530        4.38186
C         -3.66315       -0.48496        3.68189
C         -1.54055       -1.62744        3.75550
H         -0.36259       -1.53431        1.94742
H         -0.79696       -2.22491        4.28838
H         -2.92092       -1.54397        5.41443
H         -4.59826       -0.18912        4.16374
H         -4.16621        0.47054        1.82157
C          3.43106       -1.51882        1.72334
H          3.92558       -1.88217        0.82075
C          1.83691       -0.02587        2.79473
C          0.82237        1.07844        2.78585
H          0.23766        1.08767        1.85717
H          1.30538        2.06520        2.86372
H          0.12480        0.96869        3.62727
C          3.75642       -2.08587        2.95149
H          4.49860       -2.88575        3.00069
C          2.18230       -0.61283        4.01808
H          1.68409       -0.25662        4.92415
C          3.12713       -1.63072        4.10653
H          3.36843       -2.06928        5.07781
C          3.49081       -1.53642       -1.75353
C          4.50618        0.59181       -1.26160
C          5.64480       -0.98682       -2.69728
C          5.59690        0.25155       -2.06048
C          4.58781       -1.88200       -2.53937
H          2.64407       -2.22030       -1.64905
H          4.61023       -2.85368       -3.03878
H          6.50099       -1.25067       -3.32289
H          6.41490        0.96508       -2.18669
H          4.48526        1.56931       -0.77817
C          1.19697        2.69394       -0.67773
C          3.00539        2.52709        0.91143
C          2.21205        4.69746        0.20786
C          3.07883        3.91613        0.97364
C          1.27157        4.08434       -0.61650
H          0.44155        2.20742       -1.29852
H          0.57626        4.68616       -1.20493
H          2.26587        5.78751        0.26256
H          3.81325        4.39184        1.62827
H          3.67320        1.91748        1.52657
