94
Cat345.ts34.5.log	Energy: -2349976.0338373
C          1.17319       -0.27623       -3.50092
H          1.00758        0.50488       -4.24855
H          2.22154       -0.57379       -3.39094
C          0.17099       -1.30838       -3.39745
H         -0.74941       -1.23330       -3.98506
H          0.51858       -2.34581       -3.30979
H         -0.05273       -1.49217       -1.86389
Ir         0.08844        0.17615       -1.70689
C          1.41816       -1.42931        1.15135
C          3.34869       -0.90096       -0.91349
C          2.46779        1.23135        0.77714
C         -1.76289        1.51180        0.87491
C         -3.40015        0.47527       -1.25214
C         -2.25044       -1.35522        0.57190
P         -1.81897        0.16763       -0.36777
P          1.82052       -0.20863       -0.16629
C         -0.14272        1.99846       -2.13063
O         -0.27041        3.12275       -2.37908
C          1.53703       -1.16375        2.52020
H          1.95958       -0.21588        2.85731
C          0.85673       -2.65394        0.76301
H          0.70537       -2.85860       -0.29995
C          1.10181       -2.08313        3.47265
H          1.17546       -1.86009        4.53840
C          0.45607       -3.59841        1.69948
H          0.01744       -4.54606        1.38636
C          0.56867       -3.29912        3.05544
Cl        -0.00061       -4.43874        4.23213
C          3.78798       -2.21214       -0.73754
H          3.26115       -2.86152       -0.03581
C          4.06186       -0.06490       -1.79920
O          3.60235        1.19384       -1.90585
C          4.10462        2.04753       -2.89148
H          5.16504        2.30028       -2.71449
H          3.50511        2.96503       -2.83914
H          4.00237        1.60743       -3.89892
C          4.89724       -2.70301       -1.42781
H          5.22294       -3.73387       -1.27254
C          5.17174       -0.55220       -2.49548
H          5.71857        0.09474       -3.18226
C          5.58435       -1.87127       -2.30632
H          6.45353       -2.24418       -2.85355
C          1.81820        2.45937        0.67626
H          0.93018        2.51757        0.04535
C          3.63633        1.14907        1.56696
O          4.23215       -0.05507        1.63731
C          5.44139       -0.20116        2.32235
H          6.22317        0.46393        1.91630
H          5.75213       -1.24386        2.17996
H          5.32943       -0.00335        3.40330
C          2.27845        3.58890        1.35201
H          1.73561        4.53252        1.27192
C          4.10893        2.28025        2.24072
H          5.00878        2.22223        2.85367
C          3.42428        3.49143        2.13271
H          3.80091        4.36573        2.66970
C         -2.40569        2.73026        0.63107
H         -3.06278        2.83636       -0.23506
C         -0.90310        1.41721        1.97561
H         -0.34376        0.49769        2.15427
C         -2.19857        3.82629        1.46415
H         -2.68657        4.78099        1.26147
C         -0.70592        2.49611        2.82985
H         -0.02241        2.41938        3.67655
C         -1.34998        3.70155        2.56228
Cl        -1.05880        5.07243        3.58400
C         -3.39154        0.59264       -2.64012
H         -2.41702        0.54206       -3.13733
C         -4.63347        0.53913       -0.56804
O         -4.58213        0.43888        0.77074
C         -5.76349        0.44430        1.51916
H         -6.30809        1.39925        1.41772
H         -5.46650        0.31259        2.56711
H         -6.43303       -0.38437        1.23050
C         -4.57235        0.76901       -3.36087
H         -4.54424        0.86276       -4.44829
C         -5.82120        0.71325       -1.28652
H         -6.77910        0.76649       -0.76854
C         -5.78213        0.82547       -2.67670
H         -6.71793        0.96308       -3.22452
C         -2.39398       -1.41086        1.95782
H         -2.26332       -0.50192        2.54463
C         -2.48710       -2.53164       -0.17112
O         -2.37930       -2.42005       -1.50857
C         -2.67167       -3.51449       -2.32758
H         -1.98364       -4.35929       -2.14687
H         -2.54738       -3.17005       -3.36176
H         -3.70982       -3.86242       -2.18761
C         -2.72413       -2.59792        2.60980
H         -2.80599       -2.61831        3.69797
C         -2.82836       -3.72296        0.47651
H         -3.01047       -4.63095       -0.09884
C         -2.93688       -3.75245        1.86605
H         -3.18747       -4.69079        2.36621
