96
Cat390.ts34.5.log	Energy: -1633972.1669275
C         -0.63529       -2.81454       -1.77094
H         -0.42162       -3.80412       -1.35702
H         -1.65851       -2.70804       -2.14881
C          0.42692       -2.16416       -2.49893
H          1.42664       -2.61013       -2.51424
H          0.17506       -1.69154       -3.45763
H          0.41799       -0.71934       -2.00868
Ir         0.08970       -1.28466       -0.44463
C         -1.91016        1.67660       -1.09041
C         -3.43783       -0.74709       -0.81714
C         -2.37757        0.40687        1.46493
C          2.26388        0.13435        1.99231
C          3.50621       -0.92791       -0.38849
C          2.23175        1.62197       -0.48170
P          1.97374       -0.06470        0.18534
P         -1.85872        0.02751       -0.26597
C          0.23250       -2.41895        1.05071
O          0.32694       -3.11644        1.96920
C         -1.84682        2.85044       -0.32592
H         -1.86807        2.78205        0.76236
C         -1.87841        1.77661       -2.50168
C         -1.93404        0.57699       -3.40352
H         -2.96803        0.35809       -3.71399
H         -1.55726       -0.32456       -2.90347
H         -1.34103        0.74618       -4.31442
C         -1.75928        4.10431       -0.92330
H         -1.70419        4.99935       -0.29937
C         -1.80581        3.04851       -3.08136
H         -1.78887        3.12436       -4.17272
C         -1.74652        4.20660       -2.31094
H         -1.68419        5.18422       -2.79523
C         -3.64344       -2.09377       -0.49197
H         -2.84848       -2.64225        0.02107
C         -4.46712       -0.05390       -1.46051
H         -4.34182        1.00395       -1.70650
C         -4.84023       -2.72619       -0.80819
H         -4.97933       -3.77690       -0.53777
C         -5.66101       -0.69643       -1.78445
H         -6.45255       -0.13444       -2.28868
C         -5.86963       -2.04253       -1.46875
C         -7.14366       -2.74296       -1.84028
H         -7.49276       -3.39920       -1.02881
H         -7.94564       -2.02757       -2.07148
H         -6.99991       -3.37812       -2.73035
C         -3.58754        1.06565        1.73256
H         -4.22714        1.38850        0.90753
C         -1.60121       -0.01253        2.54348
H         -0.65860       -0.52613        2.35098
C         -3.98590        1.31241        3.03971
H         -4.93043        1.83258        3.22395
C         -2.00727        0.22997        3.85502
H         -1.37110       -0.10667        4.67831
C         -3.20287        0.89736        4.12814
C         -3.65781        1.14314        5.53657
H         -4.49208        0.47313        5.80269
H         -2.84805        0.96685        6.25844
H         -4.01845        2.17473        5.66888
C          3.09285       -0.78912        2.64332
H          3.63095       -1.53553        2.05619
C          1.56510        1.10036        2.75234
C          0.67193        2.13822        2.14081
H          0.18735        1.77282        1.22688
H          1.24068        3.03767        1.85704
H         -0.11403        2.43547        2.84841
C          3.24016       -0.77677        4.02667
H          3.88827       -1.51097        4.51043
C          1.73100        1.09217        4.14277
H          1.18723        1.83377        4.73479
C          2.55397        0.16989        4.78193
H          2.65558        0.18981        5.86973
C          3.50412       -2.32656       -0.46382
H          2.58691       -2.86357       -0.20644
C          4.67584       -0.25061       -0.75086
H          4.71109        0.83937       -0.72193
C          4.63956       -3.02342       -0.86535
H          4.61148       -4.11618       -0.90366
C          5.80475       -0.95266       -1.16530
H          6.70431       -0.39779       -1.44697
C          5.81156       -2.35017       -1.22906
C          7.02005       -3.10011       -1.70641
H          7.94638       -2.54234       -1.50683
H          7.09977       -4.08518       -1.22399
H          6.96981       -3.27300       -2.79465
C          3.12482        2.52234        0.11140
H          3.67184        2.23249        1.01300
C          1.52760        2.02858       -1.61719
H          0.80587        1.34378       -2.06748
C          3.30198        3.79642       -0.42202
H          3.99674        4.48953        0.06068
C          1.71166        3.29989       -2.14845
H          1.13541        3.59768       -3.02785
C          2.59763        4.20902       -1.55906
C          2.76471        5.58768       -2.12685
H          3.10520        5.54868       -3.17374
H          1.80782        6.13391       -2.11994
H          3.49500        6.17695       -1.55499
