98
Cat344.ts34.5.log	Energy: -1976207.7910601
C         -0.76025       -3.58130       -1.19267
H         -0.86169       -4.45230       -0.53881
H         -1.62861       -3.42610       -1.84263
C          0.54804       -3.33804       -1.75911
H          1.39633       -3.94662       -1.43225
H          0.60874       -3.09977       -2.82846
H          0.72859       -1.78638       -1.62997
Ir         0.00881       -1.89538       -0.10732
C         -0.96708        1.05429       -1.77948
C         -3.05475       -0.91756       -1.70092
C         -2.39122        0.56009        0.68466
C          0.98502        0.89339        1.78418
C          3.01475       -1.11787        1.61112
C          2.43600        0.53694       -0.70195
P          1.61709       -0.40201        0.64702
P         -1.60266       -0.31420       -0.73039
C         -0.22835       -2.64415        1.60531
O         -0.36640       -3.06224        2.67921
C         -0.83189        2.37380       -1.33066
H         -1.24451        2.67462       -0.36746
C         -0.41815        0.72616       -3.02949
H         -0.48607       -0.30277       -3.39392
C         -0.13421        3.32384       -2.07678
H         -0.01359        4.34408       -1.70788
C          0.26402        1.66433       -3.79354
H          0.69935        1.39539       -4.75739
C          0.42301        2.96072       -3.29882
Cl         1.34491        4.11767       -4.20092
H         -2.64808       -1.40696       -2.60249
H         -3.64748       -0.05505       -2.04341
C         -3.89148       -1.90677       -0.89853
H         -3.21293       -2.58831       -0.35783
H         -4.45872       -1.36565       -0.12004
C         -4.87143       -2.73462       -1.73229
H         -4.27752       -3.27539       -2.49410
C         -5.56262       -3.77342       -0.85738
H         -4.83138       -4.42563       -0.35533
H         -6.23772       -4.41234       -1.44758
H         -6.16667       -3.28585       -0.07387
C         -5.89011       -1.86571       -2.46146
H         -6.59062       -2.48036       -3.04783
H         -5.41074       -1.15877       -3.15530
H         -6.48574       -1.27727       -1.74283
H         -1.57341        1.10366        1.18325
H         -2.66011       -0.24311        1.38757
C         -3.56968        1.48655        0.40677
H         -3.41162        2.03731       -0.53576
H         -4.48619        0.89069        0.24991
C         -3.81944        2.50226        1.52636
H         -2.89382        3.09963        1.63910
C         -4.94698        3.45413        1.14790
H         -4.73860        3.96900        0.19675
H         -5.09922        4.22261        1.92146
H         -5.89806        2.90845        1.02936
C         -4.09118        1.83032        2.86708
H         -4.24970        2.57905        3.65771
H         -3.25161        1.19412        3.18404
H         -4.99343        1.19764        2.81314
C          0.39085        0.48484        2.98854
H          0.39359       -0.57034        3.27228
C          0.92741        2.24961        1.44391
H          1.37337        2.60733        0.51564
C         -0.26172        1.39222        3.81481
H         -0.73615        1.06393        4.74089
C          0.26575        3.16911        2.25670
H          0.20730        4.22216        1.97585
C         -0.33778        2.73211        3.43233
Cl        -1.21268        3.85777        4.41532
H          2.56926       -1.54750        2.52400
H          3.68283       -0.30055        1.92571
C          3.74428       -2.19902        0.82848
H          2.98780       -2.90472        0.44321
H          4.23046       -1.75596       -0.06077
C          4.79590       -2.97044        1.62816
H          4.28576       -3.40121        2.51031
C          5.34600       -4.12347        0.79674
H          4.54164       -4.79701        0.46259
H          6.07220       -4.72189        1.36836
H          5.86095       -3.74666       -0.10305
C          5.92206       -2.07172        2.12707
H          6.67436       -2.64987        2.68572
H          5.55517       -1.27786        2.79495
H          6.43769       -1.58606        1.28089
H          1.63544        1.14006       -1.16023
H          2.68162       -0.22379       -1.45821
C          3.64852        1.39329       -0.35726
H          3.51358        1.87675        0.62492
H          4.54018        0.75012       -0.24972
C          3.93441        2.48066       -1.39810
H          3.03433        3.12317       -1.45554
C          5.10454        3.35111       -0.95804
H          4.92521        3.79817        0.03245
H          5.28395        4.17078       -1.67067
H          6.03214        2.75816       -0.89240
C          4.16745        1.90409       -2.78962
H          4.35699        2.70498       -3.51986
H          3.29614        1.33680       -3.14927
H          5.03916        1.22772       -2.79369
