96
Cat399.ts34.5.log	Energy: -1633969.0798131
C          0.94236       -3.04301       -1.47423
H          0.98163       -3.21545       -2.55387
H          1.89491       -3.24768       -0.97154
C         -0.27520       -3.41544       -0.79498
H         -1.14292       -3.73565       -1.37703
H         -0.20078       -3.96686        0.15095
H         -0.52336       -2.23180        0.19719
Ir        -0.04115       -1.18798       -1.03106
C          0.94320        0.17184        2.05808
C          3.14318       -1.25020        0.71596
C          2.30116        1.32693       -0.25316
C         -1.62882        1.94241       -0.24170
C         -3.19989        0.17813       -1.79640
C         -2.78102       -0.48431        1.04672
P         -1.88677        0.11424       -0.46352
P          1.58960       -0.26344        0.38518
C          0.02740       -0.54273       -2.80123
O          0.07049       -0.12429       -3.88231
C          0.49079        1.48080        2.29097
H          0.63832        2.25470        1.53776
C          0.71719       -0.80801        3.05409
C          1.11295       -2.24547        2.88059
H          2.19547       -2.39252        3.00862
H          0.84252       -2.60656        1.87646
H          0.60579       -2.88133        3.61897
C         -0.15820        1.83373        3.47059
H         -0.49664        2.86305        3.61006
C          0.07343       -0.42847        4.23814
H         -0.09312       -1.18846        5.00717
C         -0.36652        0.87450        4.45695
H         -0.87015        1.13459        5.39078
H          2.83228       -2.30411        0.77812
H          3.54447       -0.96627        1.69920
C          4.21698       -1.09632       -0.32635
C          5.53780       -0.86157        0.07238
H          5.76559       -0.76541        1.13719
C          3.93895       -1.18459       -1.69694
H          2.91095       -1.35765       -2.02572
C          6.55460       -0.71393       -0.86659
H          7.57633       -0.52074       -0.53109
C          4.95457       -1.02778       -2.63816
H          4.71547       -1.09129       -3.70269
C          6.26615       -0.79235       -2.22798
H          7.06089       -0.66897       -2.96773
H          1.49768        2.07357       -0.17282
H          2.41192        1.14850       -1.33200
C          3.59556        1.84756        0.30588
C          3.85790        1.92629        1.67979
H          3.10126        1.60286        2.39686
C          4.59151        2.27201       -0.58277
H          4.41286        2.19314       -1.65834
C          5.08260        2.40207        2.14526
H          5.26769        2.44944        3.22144
C          5.81281        2.75240       -0.12052
H          6.57708        3.06450       -0.83633
C          6.06630        2.81594        1.24864
H          7.02695        3.18516        1.61571
C         -0.72166        2.44943       -1.18547
H         -0.24369        1.75143       -1.87572
C         -2.25339        2.84652        0.65037
C         -3.30431        2.48327        1.65953
H         -2.91589        1.81787        2.44300
H         -4.16603        1.99275        1.18513
H         -3.67701        3.39077        2.15282
C         -0.39688        3.80019       -1.25798
H          0.31405        4.15072       -2.00944
C         -1.88427        4.19831        0.58159
H         -2.35224        4.89579        1.28147
C         -0.97149        4.68235       -0.34936
H         -0.72020        5.74543       -0.36817
H         -3.46639       -0.86575       -2.01445
H         -2.66161        0.55243       -2.68037
C         -4.38994        1.02520       -1.47654
C         -4.38132        2.39899       -1.75728
H         -3.51686        2.83613       -2.26262
C         -5.51471        0.48744       -0.83426
H         -5.55567       -0.58410       -0.62197
C         -5.45003        3.21102       -1.38737
H         -5.41817        4.27988       -1.61174
C         -6.58618        1.29828       -0.46411
H         -7.45212        0.85681        0.03506
C         -6.55407        2.66591       -0.73252
H         -7.39175        3.30364       -0.44070
H         -3.77648       -0.02079        1.07470
H         -2.20215       -0.09167        1.89499
C         -2.89635       -1.97505        1.17419
C         -2.28749       -2.62556        2.25277
H         -1.73749       -2.02807        2.98229
C         -3.60892       -2.75340        0.25312
H         -4.09640       -2.27881       -0.59967
C         -2.37150       -4.00877        2.40167
H         -1.88417       -4.49263        3.25197
C         -3.69671       -4.13574        0.39788
H         -4.25427       -4.72141       -0.33699
C         -3.07449       -4.77150        1.47157
H         -3.14044       -5.85622        1.58302
