82
Cat340.ts34.5.log	Energy: -3404748.4008642
C         -0.86361       -3.32825       -1.55574
H         -0.80719       -4.25356       -0.97645
H         -1.85990       -3.08817       -1.93902
C          0.27126       -2.98674       -2.36920
H          1.19065       -3.57526       -2.30096
H          0.08601       -2.60420       -3.37929
H          0.50767       -1.45027       -2.10284
Ir         0.11650       -1.72209       -0.48700
C         -1.49150        1.48378       -0.80828
O         -2.89639       -0.71060       -1.53890
O         -2.47983       -0.15045        0.94727
C          2.00353        0.26802        1.77701
O          3.37990       -0.92717       -0.10988
O          1.86977        1.01710       -0.82063
P          1.81953       -0.37278        0.09696
P         -1.64412       -0.30203       -0.50032
C          0.24875       -2.74403        1.12186
O          0.30115       -3.35318        2.09595
C         -2.07611        2.46262        0.00223
H         -2.67085        2.16167        0.86557
C         -0.73926        1.87392       -1.92215
H         -0.25628        1.11274       -2.53953
C         -1.90166        3.81303       -0.28789
H         -2.34766        4.58375        0.34269
C         -0.56812        3.21853       -2.22805
H          0.03106        3.52911       -3.08491
C         -1.14441        4.18188       -1.39945
Cl        -0.88759        5.85747       -1.73700
C         -3.99954        0.09059       -1.69541
C         -5.05424        0.03049       -0.78441
H         -5.00054       -0.65649        0.06124
C         -4.06056        0.96010       -2.78438
H         -3.22580        0.99286       -3.48603
C         -6.16879        0.84570       -0.96026
H         -7.00103        0.80787       -0.25574
C         -5.17211        1.77650       -2.96352
H         -5.22943        2.46246       -3.80994
C         -6.22088        1.71816       -2.04632
Cl        -7.60464        2.73835       -2.26093
C         -2.69093       -1.20762        1.78386
C         -3.08385       -2.46180        1.31028
H         -3.22823       -2.61871        0.24051
C         -2.51042       -1.00103        3.15125
H         -2.21613       -0.01108        3.50425
C         -3.27122       -3.51091        2.20496
H         -3.56627       -4.49782        1.84566
C         -2.70327       -2.04636        4.04750
H         -2.55723       -1.89626        5.11811
C         -3.07519       -3.30192        3.56857
Cl        -3.29921       -4.61129        4.67899
C          3.24792        0.59392        2.32971
H          4.16075        0.38821        1.76872
C          0.83555        0.51991        2.50369
H         -0.13374        0.25395        2.07587
C          3.32296        1.17959        3.58776
H          4.28636        1.44192        4.02729
C          0.90118        1.10678        3.76243
H         -0.00344        1.30706        4.33853
C          2.14698        1.43780        4.29418
Cl         2.23647        2.17373        5.85505
C          3.65667       -1.78370       -1.14196
C          3.58483       -1.35309       -2.46720
H          3.29814       -0.32237       -2.68298
C          3.99259       -3.10343       -0.84689
H          4.02305       -3.42075        0.19660
C          3.85643       -2.24465       -3.50128
H          3.80217       -1.92289       -4.54242
C          4.26865       -3.99661       -1.87734
H          4.53102       -5.03327       -1.66072
C          4.19593       -3.56326       -3.20164
Cl         4.52477       -4.67666       -4.48691
C          2.54921        2.14767       -0.44695
C          3.90457        2.29043       -0.73936
H          4.43682        1.48139       -1.24206
C          1.85495        3.16471        0.20778
H          0.79623        3.02741        0.43257
C          4.56933        3.45928       -0.37675
H          5.63014        3.58757       -0.59735
C          2.51388        4.33493        0.56611
H          1.97955        5.14113        1.07062
C          3.87077        4.47544        0.27388
Cl         4.69750        5.92942        0.72368
