100
Cat395.ts34.5.log	Energy: -1822725.5128509
C         -1.54562        1.40085        2.65898
H         -1.48617        2.46398        2.90596
H         -2.55570        1.02494        2.47636
C         -0.60318        0.51772        3.27947
H          0.20298        0.91742        3.89871
H         -0.95496       -0.46297        3.61995
H         -0.03319       -0.40177        2.09910
Ir        -0.09877        0.94342        1.10383
C         -1.37478       -1.48397       -1.36086
O         -2.99004       -0.55875        0.61438
O         -2.32847        0.93520       -1.40308
C          2.94146        1.47056       -0.67205
O          3.07351       -0.07526        1.44632
O          1.85865       -1.04528       -0.60299
P          1.91640        0.33570        0.31066
P         -1.64657       -0.06039       -0.24249
C          0.19581        2.78760        0.71027
O          0.36534        3.90438        0.48921
C         -1.39461       -1.29757       -2.74864
H         -1.60413       -0.30413       -3.14566
C         -1.09817       -2.76153       -0.82718
C         -1.05224       -3.02763        0.64734
H         -2.06642       -3.05241        1.07512
H         -0.49295       -2.24268        1.17656
H         -0.57578       -3.99620        0.85209
C         -1.17709       -2.36262       -3.61795
H         -1.20623       -2.19921       -4.69766
C         -0.88467       -3.81646       -1.72114
H         -0.67407       -4.80989       -1.31644
C         -0.93040       -3.63144       -3.09999
H         -0.76093       -4.47861       -3.76895
C         -4.05259       -1.30000        0.17454
C         -4.57018       -1.21282       -1.11865
H         -4.12611       -0.52391       -1.83615
C         -4.64701       -2.15572        1.10318
H         -4.24225       -2.19197        2.11685
C         -5.66257       -2.00136       -1.47078
H         -6.05955       -1.92516       -2.48698
C         -5.74161       -2.93067        0.73397
H         -6.19925       -3.59374        1.47358
C         -6.26637       -2.87745       -0.56259
C         -7.42127       -3.74567       -0.97081
H         -8.03684       -3.26112       -1.74284
H         -8.07139       -3.98155       -0.11566
H         -7.06977       -4.70432       -1.38851
C         -2.47164        2.28390       -1.21035
C         -3.19785        2.78822       -0.13320
H         -3.66749        2.09726        0.56823
C         -1.88719        3.15347       -2.12738
H         -1.32749        2.74181       -2.96849
C         -3.30590        4.16542        0.03477
H         -3.86798        4.55400        0.88847
C         -2.01090        4.52746       -1.94942
H         -1.53845        5.20295       -2.66770
C         -2.70694        5.06040       -0.85874
C         -2.77230        6.54260       -0.63351
H         -1.88970        6.88812       -0.06943
H         -3.66378        6.82564       -0.05530
H         -2.79021        7.09666       -1.58353
C          4.06778        2.06198       -0.08786
H          4.35484        1.77069        0.92318
C          2.54076        1.83551       -1.97572
C          1.34130        1.23783       -2.64827
H          0.46459        1.24959       -1.98443
H          1.52070        0.18914       -2.92994
H          1.09298        1.79517       -3.56183
C          4.81805        3.00345       -0.78446
H          5.69620        3.45506       -0.31760
C          3.31366        2.78378       -2.65397
H          3.01624        3.07392       -3.66517
C          4.43856        3.36337       -2.07461
H          5.01705        4.10330       -2.63304
C          2.73730       -0.74602        2.59007
C          2.93779       -0.12197        3.81945
H          3.34410        0.89094        3.83762
C          2.19982       -2.03133        2.53682
H          2.04668       -2.50868        1.56747
C          2.59962       -0.78841        4.99315
H          2.75596       -0.28983        5.95394
C          1.85623       -2.68018        3.72064
H          1.42603       -3.68437        3.67003
C          2.04805       -2.07601        4.96821
C          1.70305       -2.79323        6.24127
H          1.32073       -2.09910        7.00429
H          2.58933       -3.29105        6.66930
H          0.94169       -3.56847        6.07346
C          2.85776       -1.59496       -1.36402
C          2.44981       -2.30888       -2.49203
H          1.38293       -2.38754       -2.70453
C          4.21333       -1.49589       -1.05306
H          4.53368       -0.95921       -0.16098
C          3.39871       -2.91122       -3.30894
H          3.06405       -3.47035       -4.18752
C          5.14912       -2.10257       -1.89001
H          6.21022       -2.01883       -1.63928
C          4.76862       -2.81510       -3.03037
C          5.78724       -3.44186       -3.93804
H          5.92387       -2.84533       -4.85557
H          5.48145       -4.45162       -4.25171
H          6.76825       -3.52126       -3.44837
