84
Cat360.ts34.5.log	Energy: -2688656.7423991
C         -0.98066       -0.02897       -3.58432
H         -0.83906       -0.90323       -4.22618
H         -2.01660        0.32303       -3.54102
C          0.06731        0.95884       -3.58320
H          0.99686        0.76586       -4.12697
H         -0.22115        2.01593       -3.62991
H          0.24169        1.32311       -2.05574
Ir         0.02764       -0.30531       -1.70526
C         -1.57234        1.89982        0.56869
C         -3.42780        0.39970       -1.04142
C         -2.15488       -0.89732        1.05619
C          1.59342       -1.33441        1.28794
C          3.41131       -0.76656       -0.84237
C          2.20485        1.38545        0.58608
P          1.77918       -0.23981       -0.16924
P         -1.74941        0.29150       -0.29088
C          0.30560       -2.15335       -1.97600
O          0.48249       -3.28656       -2.13189
C         -1.20798        2.01971        1.91426
H         -1.13685        1.12811        2.53930
C         -1.64975        3.07160       -0.19796
H         -1.90823        3.00855       -1.25929
C         -0.93311        3.26611        2.47130
H         -0.63912        3.32759        3.52287
C         -1.39735        4.31555        0.37008
H         -1.47942        5.21415       -0.24813
C         -1.02450        4.43869        1.71492
C         -0.69188        5.77159        2.31591
H         -1.05805        6.59948        1.69249
H         -1.12816        5.87983        3.32026
H          0.39939        5.88983        2.42307
C         -4.36224        1.39988       -0.75348
H         -4.10193        2.21740       -0.07777
C         -3.80068       -0.64331       -1.90007
H         -3.07455       -1.42826       -2.13060
C         -5.63646        1.36908       -1.31606
H         -6.36460        2.15089       -1.09364
C         -5.07250       -0.69220       -2.45897
H         -5.36151       -1.50677       -3.12494
C         -5.98485        0.32187       -2.16632
Cl        -7.56700        0.27891       -2.86849
C         -3.06412       -0.57624        2.07369
H         -3.52862        0.41253        2.10318
C         -1.61633       -2.18404        1.01597
H         -0.91806       -2.44068        0.21807
C         -3.39082       -1.50449        3.05581
H         -4.08870       -1.25395        3.85634
C         -1.95106       -3.13239        1.97833
H         -1.52375       -4.13499        1.94281
C         -2.82346       -2.77865        3.00226
Cl        -3.21595       -3.93682        4.23326
C          1.84927       -2.70452        1.15865
H          2.25168       -3.10130        0.22322
C          1.06351       -0.86737        2.49671
H          0.84927        0.19542        2.62014
C          1.58923       -3.57469        2.21435
H          1.79944       -4.64072        2.09134
C          0.80650       -1.74263        3.54579
H          0.38715       -1.35338        4.47769
C          1.06099       -3.11392        3.42568
C          0.73816       -4.05421        4.54802
H          1.11094       -3.67296        5.51084
H         -0.35289       -4.17724        4.64976
H          1.17437       -5.04896        4.38120
C          3.59673       -0.76459       -2.22666
H          2.74409       -0.51141       -2.86395
C          4.48302       -1.13056       -0.01680
H          4.35582       -1.16767        1.06732
C          4.82660       -1.10188       -2.78575
H          4.97065       -1.10287       -3.86728
C          5.71501       -1.47612       -0.56015
H          6.54921       -1.76739        0.08003
C          5.88050       -1.45457       -1.94604
Cl         7.41241       -1.88456       -2.62684
C          3.03407        1.47906        1.71320
H          3.41766        0.57629        2.19201
C          1.73245        2.56465        0.00880
H          1.07351        2.50360       -0.85886
C          3.36503        2.71412        2.25874
H          4.00053        2.78387        3.14286
C          2.06431        3.80986        0.53337
H          1.68296        4.72454        0.07854
C          2.87249        3.87548        1.66341
Cl         3.26437        5.41858        2.35016
