88
Cat398.ts34.5.log	Energy: -2877406.7862735
C         -1.64729        1.22681        2.68041
H         -1.68924        2.28264        2.96001
H         -2.61572        0.76564        2.47014
C         -0.63805        0.41493        3.29168
H          0.11678        0.86995        3.93671
H         -0.90391       -0.60320        3.59831
H          0.03205       -0.41151        2.09336
Ir        -0.14261        0.95084        1.13568
C         -1.16180       -1.49091       -1.43300
O         -2.88535       -0.78119        0.53947
O         -2.32087        0.83729       -1.40824
C          2.85298        1.81489       -0.58725
O          3.11016        0.20891        1.47610
O          2.00154       -0.79013       -0.61459
P          1.92572        0.56248        0.34505
P         -1.56988       -0.13905       -0.26989
C         -0.01335        2.82766        0.80372
O          0.05501        3.95954        0.61303
C         -1.18860       -1.26109       -2.81437
H         -1.47929       -0.27707       -3.18261
C         -0.77952       -2.75680       -0.93736
C         -0.71572       -3.06451        0.52841
H         -1.72462       -3.17915        0.95368
H         -0.21775       -2.25602        1.08297
H         -0.16898       -4.00079        0.70503
C         -0.87597       -2.27524       -3.71502
H         -0.91312       -2.08038       -4.78917
C         -0.47267       -3.76042       -1.86275
H         -0.18228       -4.74559       -1.48868
C         -0.52650       -3.53505       -3.23540
H         -0.28440       -4.34330       -3.92954
C         -3.86435       -1.59915        0.05142
C         -4.36160       -1.50966       -1.25063
H         -3.96886       -0.75674       -1.93274
C         -4.38958       -2.54329        0.93662
H         -3.99923       -2.58311        1.95551
C         -5.36608       -2.37919       -1.66618
H         -5.75887       -2.32008       -2.68235
C         -5.39753       -3.40764        0.52419
H         -5.81254       -4.14743        1.21043
C         -5.87781       -3.32682       -0.78231
Cl        -7.12685       -4.40782       -1.30688
C         -2.61297        2.15007       -1.16162
C         -3.41020        2.52281       -0.07917
H         -3.80819        1.75535        0.58582
C         -2.10874        3.11692       -2.02892
H         -1.48518        2.80634       -2.86819
C         -3.68669        3.86722        0.14582
H         -4.30206        4.17319        0.99313
C         -2.38872        4.46173       -1.81122
H         -1.99072        5.22873       -2.47688
C         -3.17036        4.83178       -0.71833
Cl        -3.50543        6.50658       -0.43136
C          3.91803        2.48289        0.02926
H          4.22179        2.18582        1.03370
C          2.43231        2.18653       -1.88284
C          1.29581        1.50902       -2.58874
H          0.41989        1.40756       -1.93159
H          1.57350        0.49577       -2.91685
H          0.99906        2.08008       -3.47905
C          4.58838        3.50867       -0.62828
H          5.41918        4.02000       -0.13725
C          3.12505        3.22035       -2.52132
H          2.81279        3.51693       -3.52605
C          4.18980        3.87613       -1.91053
H          4.70609        4.68154       -2.43821
C          2.82181       -0.52351        2.59166
C          2.93564        0.08243        3.84163
H          3.24036        1.12886        3.89668
C          2.41930       -1.85572        2.48753
H          2.33818       -2.31645        1.50171
C          2.64642       -0.64159        4.99404
H          2.72965       -0.17937        5.97890
C          2.11859       -2.57995        3.63757
H          1.79737       -3.62058        3.57060
C          2.23002       -1.96859        4.88581
Cl         1.84740       -2.86644        6.31699
C          3.04654       -1.21684       -1.38757
C          2.70715       -1.92937       -2.53923
H          1.65286       -2.10090       -2.75937
C          4.38729       -0.99465       -1.06751
H          4.65304       -0.45576       -0.15901
C          3.70275       -2.41464       -3.37862
H          3.44507       -2.97287       -4.28000
C          5.38420       -1.47559       -1.91322
H          6.43542       -1.30540       -1.67586
C          5.04134       -2.18023       -3.06467
Cl         6.28696       -2.77624       -4.11264
