88
Cat396.ts34.5.log	Energy: -1973093.1776551
C         -1.53177        1.44511        2.64646
H         -1.48307        2.51495        2.86498
H         -2.53873        1.05211        2.48424
C         -0.57462        0.59035        3.28328
H          0.22999        1.01850        3.88517
H         -0.91371       -0.38362        3.65435
H         -0.00328       -0.35465        2.12264
Ir        -0.09234        0.96196        1.09120
C         -1.36602       -1.52507       -1.31512
O         -2.97280       -0.58242        0.65864
O         -2.34738        0.88229       -1.38743
C          2.91784        1.47560       -0.74462
O          3.09911       -0.01334        1.41071
O          1.86322       -1.04930       -0.58834
P          1.91856        0.36024        0.28392
P         -1.63908       -0.08657       -0.21757
C          0.17969        2.79933        0.64929
O          0.33336        3.91019        0.39308
C         -1.41332       -1.36567       -2.70579
H         -1.64036       -0.38268       -3.11884
C         -1.06513       -2.78897       -0.76190
C         -0.98521       -3.02487        0.71631
H         -1.98892       -3.04789        1.16796
H         -0.42029       -2.22525        1.21683
H         -0.49850       -3.98624        0.93013
C         -1.20063       -2.44538       -3.55818
H         -1.25214       -2.30376       -4.64007
C         -0.85840       -3.85923       -1.63914
H         -0.63108       -4.84275       -1.21973
C         -0.93222       -3.70153       -3.02028
H         -0.76876       -4.56030       -3.67570
C         -4.02541       -1.34888        0.23883
C         -4.55649       -1.28218       -1.05152
H         -4.12981       -0.59327       -1.77937
C         -4.58908       -2.20876        1.18430
H         -4.16893       -2.22948        2.19175
C         -5.63642       -2.09175       -1.39501
H         -6.06663       -2.06010       -2.39753
C         -5.67242       -3.01278        0.84426
H         -6.12831       -3.69036        1.56826
C         -6.18008       -2.94952       -0.44786
F         -7.21404       -3.72257       -0.78159
C         -2.52656        2.22776       -1.20779
C         -3.27068        2.71987       -0.13500
H         -3.71455        2.02175        0.57571
C         -1.96286        3.10289       -2.13425
H         -1.38193        2.69773       -2.96363
C         -3.43569        4.09278        0.02035
H         -4.00624        4.50540        0.85410
C         -2.13223        4.47613       -1.98736
H         -1.69291        5.18323       -2.69268
C         -2.86030        4.95481       -0.90545
F         -3.01536        6.26944       -0.75476
C          4.05105        2.08796       -0.19571
H          4.35759        1.82641        0.81769
C          2.49267        1.80402       -2.05041
C          1.28433        1.18406       -2.68614
H          0.41958        1.20688       -2.00714
H          1.46342        0.12976       -2.94601
H          1.01705        1.71672       -3.60903
C          4.78429        3.01368       -0.93029
H          5.66775        3.48204       -0.49098
C          3.24930        2.73678       -2.76721
H          2.93378        2.99833       -3.78064
C          4.38110        3.33661       -2.22299
H          4.94639        4.06351       -2.81104
C          2.78632       -0.65266        2.57793
C          2.98349        0.01753        3.78433
H          3.36616        1.03926        3.76511
C          2.28269       -1.95445        2.56676
H          2.13621       -2.46412        1.61314
C          2.68119       -0.61368        4.98766
H          2.82683       -0.11328        5.94662
C          1.96834       -2.58540        3.76788
H          1.57068       -3.60162        3.78861
C          2.17058       -1.90674        4.96379
F          1.87068       -2.50951        6.11360
C          2.85404       -1.60034       -1.35836
C          2.43257       -2.33277       -2.46982
H          1.36328       -2.42199       -2.66492
C          4.21471       -1.48022       -1.06794
H          4.54047       -0.92387       -0.19000
C          3.36754       -2.94188       -3.29967
H          3.05944       -3.52011       -4.17255
C          5.15138       -2.08480       -1.90409
H          6.22076       -2.00351       -1.70185
C          4.72017       -2.80565       -3.00948
F          5.62051       -3.38353       -3.80579
