84
Cat384.ts34.5.log	Energy: -1440414.0598026
C          1.63434       -2.07616       -1.99840
H          1.38729       -2.17543       -3.05907
H          2.66793       -1.77090       -1.80583
C          1.03632       -3.02121       -1.09333
H          0.29426       -3.73381       -1.46299
H          1.66760       -3.43305       -0.29733
H          0.51765       -2.11963        0.14409
Ir         0.06948       -0.96863       -0.98851
C          3.26403       -0.22348        0.25960
O          1.85340        1.91216       -0.61530
O          1.18713        0.80231        1.60845
C         -2.26878        1.25088        0.44768
O         -3.16310       -0.97474       -0.77077
O         -2.15991       -1.15890        1.59490
P         -1.86606       -0.51028        0.12012
P          1.55977        0.43251        0.04175
C         -0.76028       -0.47393       -2.62348
O         -1.24727       -0.14014       -3.61739
C          3.33527       -1.23671        1.23053
H          2.43902       -1.47439        1.80894
C          4.40260        0.05656       -0.52597
C          4.42228        1.06917       -1.63351
H          4.15847        2.07079       -1.27139
H          3.68690        0.81762       -2.41143
H          5.41559        1.10431       -2.10153
C          4.50715       -1.94456        1.46883
H          4.53212       -2.72128        2.23662
C          5.57490       -0.66932       -0.26690
H          6.46263       -0.45077       -0.86671
C          5.64074       -1.65215        0.71466
H          6.57410       -2.19495        0.88206
C          0.89619        2.51346       -1.50382
H         -0.05440        1.96633       -1.39298
C          1.36677        2.36428       -2.93511
H          1.50211        1.30111       -3.18022
H          2.31761        2.89406       -3.09977
H          0.61456        2.77453       -3.62527
C          0.69402        3.95407       -1.08808
H          0.25198        4.01595       -0.08460
H          1.65056        4.49997       -1.09390
H          0.00630        4.45292       -1.78663
C          2.04098        1.59114        2.45032
H          3.06294        1.56834        2.03045
C          2.06125        0.94346        3.82033
H          2.44599       -0.08429        3.76424
H          1.04739        0.91217        4.24744
H          2.70598        1.51506        4.50454
C          1.55239        3.02503        2.48402
H          1.60750        3.46933        1.48357
H          0.50862        3.07022        2.82872
H          2.17238        3.62482        3.16749
C         -2.57561        1.96219       -0.72421
H         -2.61566        1.42537       -1.67557
C         -2.19585        1.93870        1.67741
C         -1.85429        1.28811        2.98559
H         -0.89851        0.75477        2.90996
H         -2.61349        0.55164        3.28034
H         -1.77374        2.04716        3.77655
C         -2.82866        3.32851       -0.70540
H         -3.06833        3.85358       -1.63277
C         -2.45254        3.31847        1.66973
H         -2.40191        3.85954        2.61863
C         -2.76707        4.01209        0.50635
H         -2.95840        5.08713        0.54697
C         -4.50725       -0.95860       -0.26985
H         -4.48855       -0.65240        0.79104
C         -5.04116       -2.37366       -0.37350
H         -4.40229       -3.07141        0.18466
H         -5.05463       -2.69505       -1.42597
H         -6.06429       -2.43763        0.02655
C         -5.33588        0.02629       -1.07076
H         -4.98628        1.05671       -0.92510
H         -5.27487       -0.21590       -2.14288
H         -6.39107       -0.02560       -0.76236
C         -1.57959       -2.39217        2.03299
H         -1.22210       -2.94183        1.14387
C         -2.66346       -3.19371        2.72266
H         -3.49651       -3.40680        2.03912
H         -3.06006       -2.63784        3.58613
H         -2.25905       -4.15081        3.08430
C         -0.40162       -2.09613        2.94025
H          0.30231       -1.41824        2.43845
H         -0.73975       -1.61329        3.86991
H          0.12341       -3.02642        3.20575
