102
Cat342.ts34.5.log	Energy: -2259921.3451665
C          0.92353       -2.87144       -2.42732
H          0.45930       -3.17080       -3.37089
H          1.99230       -2.64976       -2.50483
C          0.46471       -3.52255       -1.23373
H         -0.35377       -4.24486       -1.29624
H          1.21533       -3.78273       -0.47690
H          0.12893       -2.37533       -0.17261
Ir        -0.34831       -1.41061       -1.46956
C          2.85181       -1.13191       -0.21914
C          2.12185        0.98826       -2.14524
C          1.11736        1.01903        0.67515
C         -2.47167        1.01329        0.04002
C         -3.81377       -1.19566       -1.15756
C         -2.50460       -1.59000        1.37805
P         -2.21366       -0.78531       -0.26881
P          1.46412       -0.07626       -0.76431
C         -1.14545       -0.85830       -3.08235
O         -1.63461       -0.48414       -4.06472
C          2.82687       -1.64546        1.08814
H          2.06931       -1.30952        1.79872
C          3.82568       -1.62274       -1.09838
H          3.86742       -1.26957       -2.13007
C          3.75286       -2.58917        1.51111
H          3.72656       -2.97246        2.53258
C          4.76108       -2.57143       -0.68762
H          5.51821       -2.94342       -1.37971
C          4.72323       -3.04921        0.61892
Cl         5.88117       -4.22687        1.14114
H          2.46593        0.26343       -2.89949
H          1.21015        1.42730       -2.57498
C          3.16499        2.03133       -1.86773
C          4.52341        1.69762       -1.91701
H          4.81388        0.68103       -2.18720
C          2.80086        3.35742       -1.55100
C          1.36693        3.79945       -1.54946
H          0.75283        3.20775       -0.85774
H          0.91242        3.69980       -2.54967
H          1.28106        4.85153       -1.24600
C          5.51430        2.62786       -1.61850
H          6.56630        2.33585       -1.65882
C          3.80690        4.27870       -1.24754
H          3.52119        5.30040       -0.98418
C          5.15304        3.92520       -1.26877
H          5.91652        4.66577       -1.01970
H          0.22663        1.57649        0.35214
H          0.70765        0.32201        1.42564
C          2.11728        1.94497        1.32166
C          3.49447        1.71019        1.28672
H          3.87685        0.84417        0.74903
C          1.63733        3.07406        2.02240
C          0.16836        3.36738        2.12806
H         -0.39029        2.52378        2.56120
H         -0.28683        3.56769        1.14555
H         -0.01391        4.24997        2.75613
C          4.39594        2.57410        1.90079
H          5.46679        2.36926        1.83802
C          2.55679        3.93390        2.63248
H          2.18086        4.81065        3.16755
C          3.92717        3.69687        2.57480
H          4.62363        4.38780        3.05586
C         -1.99245        1.89817       -0.93446
H         -1.41832        1.49654       -1.77449
C         -3.19791        1.53977        1.11432
H         -3.62464        0.88328        1.87434
C         -2.22477        3.26701       -0.84532
H         -1.84879        3.95080       -1.60796
C         -3.41610        2.90977        1.23396
H         -3.97212        3.31531        2.08050
C         -2.92826        3.76717        0.25027
Cl        -3.17084        5.47292        0.40343
H         -3.69724       -0.70213       -2.13449
H         -3.74799       -2.27583       -1.35078
C         -5.10142       -0.79123       -0.50663
C         -5.53957        0.53402       -0.64119
H         -4.94984        1.22456       -1.24886
C         -5.89051       -1.69760        0.23577
C         -5.55078       -3.15849        0.33853
H         -4.64764       -3.34116        0.93991
H         -5.37237       -3.60450       -0.65253
H         -6.37235       -3.71482        0.80980
C         -6.70015        0.98719       -0.02292
H         -7.01196        2.02711       -0.14428
C         -7.05389       -1.22363        0.85424
H         -7.66670       -1.92530        1.42696
C         -7.45648        0.10456        0.74317
H         -8.37050        0.44173        1.23772
H         -3.40652       -1.14579        1.82842
H         -2.77457       -2.61692        1.10513
C         -1.35569       -1.59911        2.34513
C         -0.99414       -0.42745        3.02159
H         -1.55016        0.49091        2.82505
C         -0.64263       -2.78801        2.61240
C         -1.02419       -4.09762        1.98338
H         -1.09616       -4.02531        0.88951
H         -2.00252       -4.44693        2.35436
H         -0.28593       -4.87547        2.22086
C          0.06369       -0.40068        3.92675
H          0.33172        0.53289        4.42667
C          0.41656       -2.74560        3.52691
H          0.96939       -3.66659        3.73131
C          0.77904       -1.56867        4.17731
H          1.61457       -1.56550        4.88107
