88
Cat365.ts34.5.log	Energy: -1724114.3923723
C          1.29206       -2.84028       -2.30189
H          0.99895       -3.09363       -3.32424
H          2.34821       -2.57348       -2.19192
C          0.66596       -3.56719       -1.23120
H         -0.14768       -4.26486       -1.44655
H          1.28740       -3.88168       -0.38458
H          0.30251       -2.41858       -0.14105
Ir        -0.13670       -1.46404       -1.43734
C          3.04397       -0.65575       -0.26417
O          1.82258        1.27927       -1.73575
O          0.90729        0.78131        0.66049
C         -2.28295        1.10007       -0.25395
O         -3.28615       -1.42393       -0.41898
O         -1.67178       -0.74134        1.46984
P         -1.82881       -0.65405       -0.18365
P          1.41787        0.02163       -0.72021
C         -1.07001       -1.22740       -3.08763
O         -1.63481       -1.06425       -4.07958
C          3.14387       -1.40799        0.91594
H          2.29114       -1.46756        1.59829
C          4.12781       -0.62927       -1.14414
H          4.04415       -0.08543       -2.08772
C          4.32198       -2.07504        1.22210
H          4.38647       -2.64682        2.15233
C          5.30575       -1.30640       -0.82913
H          6.14766       -1.27305       -1.52615
C          5.42762       -2.03315        0.35857
C          6.69266       -2.76176        0.70391
H          6.50834       -3.84080        0.82754
H          7.45695       -2.63693       -0.07553
H          7.11456       -2.39659        1.65382
C          2.24749        2.52427       -1.34257
C          3.59294        2.87303       -1.45617
H          4.30502        2.14890       -1.85255
C          1.31841        3.44288       -0.85203
H          0.27017        3.15116       -0.77817
C          4.01072        4.13804       -1.04686
H          5.06614        4.40821       -1.13124
C          1.74815        4.69918       -0.43685
H          1.02058        5.40640       -0.03188
C          3.09478        5.05062       -0.52622
H          3.42929        6.03585       -0.19435
C          1.45059        1.62029        1.59323
C          2.81522        1.86375        1.74921
H          3.54245        1.38469        1.09629
C          0.52159        2.24880        2.42679
H         -0.53773        2.04273        2.26354
C          3.23694        2.75391        2.73535
H          4.30576        2.95316        2.84359
C          0.95863        3.12964        3.41077
H          0.22548        3.62238        4.05416
C          2.31996        3.38935        3.57000
H          2.66365        4.08603        4.33750
C         -1.99563        1.81272       -1.42054
H         -1.47623        1.31566       -2.24366
C         -2.91853        1.75622        0.80856
H         -3.14824        1.20801        1.72376
C         -2.34161        3.15808       -1.52462
H         -2.10646        3.70205       -2.44327
C         -3.25043        3.10080        0.69825
H         -3.74494        3.60100        1.53557
C         -2.96640        3.82687       -0.46698
C         -3.29366        5.28769       -0.55984
H         -2.51247        5.89370       -0.07086
H         -3.36213        5.62103       -1.60486
H         -4.24493        5.52022       -0.05897
C         -4.45798       -0.98439        0.14591
C         -5.31606       -0.18571       -0.60934
H         -5.02701        0.08286       -1.62695
C         -4.78718       -1.34650        1.45221
H         -4.10173       -1.97344        2.02470
C         -6.51013        0.25892       -0.04815
H         -7.18169        0.88674       -0.63850
C         -5.98433       -0.89445        2.00441
H         -6.24435       -1.17638        3.02757
C         -6.84656       -0.09001        1.25989
H         -7.78321        0.26187        1.69796
C         -1.01765       -1.74808        2.11678
C         -1.28763       -3.09123        1.84240
H         -2.02820       -3.34746        1.08203
C         -0.07004       -1.39646        3.07850
H          0.12533       -0.33931        3.26507
C         -0.59114       -4.08277        2.53171
H         -0.79864       -5.13288        2.31260
C          0.61306       -2.39735        3.76543
H          1.35529       -2.11960        4.51784
C          0.36116       -3.74249        3.49150
H          0.90267       -4.52402        4.02893
