88
Cat369.ts34.5.log	Energy: -2877400.2790129
C         -0.73398        2.29498       -3.06351
H         -0.47407        2.20904       -4.12176
H         -1.80381        2.19666       -2.85632
C          0.04708        3.19661       -2.26306
H          0.92690        3.68129       -2.69349
H         -0.46637        3.82851       -1.52887
H          0.36001        2.37747       -0.92113
Ir         0.54830        1.01816       -1.87966
C         -1.51221        0.56842        0.97512
O         -2.60602        0.03243       -1.44966
O         -0.85244       -1.63983       -0.48439
C          3.67905       -0.57412       -1.16688
O          3.15011        1.62231        0.18150
O          1.75547       -0.48742        0.70848
P          2.28895        0.41974       -0.59186
P         -1.11507       -0.00324       -0.70877
C          1.17475        0.05557       -3.40695
O          1.52651       -0.54140       -4.32611
C         -0.99794       -0.05301        2.11432
H         -0.41113       -0.96589        2.01374
C         -2.20324        1.78015        1.12060
H         -2.59236        2.29996        0.24095
C         -1.18866        0.51432        3.37324
H         -0.77095        0.01713        4.25300
C         -2.40004        2.33249        2.37871
H         -2.94834        3.27410        2.47108
C         -1.89732        1.70965        3.53085
C         -2.12001        2.31455        4.88531
H         -1.51889        1.81281        5.65608
H         -1.86379        3.38543        4.89464
H         -3.17876        2.23589        5.18155
C         -3.87874        0.13148       -0.95900
C         -4.33332       -0.54473        0.17418
H         -3.66414       -1.18906        0.74237
C         -4.75277        0.94975       -1.67752
H         -4.37845        1.46583       -2.56381
C         -5.65487       -0.39743        0.58484
H         -6.01599       -0.92489        1.46885
C         -6.07476        1.09522       -1.27210
H         -6.76227        1.73112       -1.83192
C         -6.52123        0.42129       -0.13602
Cl        -8.16561        0.60201        0.38064
C         -1.81390       -2.59669       -0.32741
C         -2.61195       -2.97226       -1.41085
H         -2.46957       -2.47871       -2.37276
C         -1.97301       -3.22687        0.90803
H         -1.33857       -2.93872        1.74657
C         -3.58960       -3.94714       -1.24989
H         -4.22777       -4.23625       -2.08616
C         -2.94511       -4.21083        1.06980
H         -3.07951       -4.70634        2.03253
C         -3.75767       -4.55895       -0.00757
Cl        -4.98155       -5.76694        0.19647
C          5.00457       -0.13968       -1.11906
H          5.23549        0.84601       -0.71221
C          3.38610       -1.84343       -1.68427
H          2.34959       -2.19021       -1.72676
C          6.02275       -0.96873       -1.58345
H          7.05851       -0.62123       -1.54115
C          4.41060       -2.66214       -2.13853
H          4.17052       -3.65193       -2.53599
C          5.74700       -2.23940       -2.09811
C          6.84188       -3.12997       -2.60537
H          6.79623       -4.12395       -2.13405
H          6.75160       -3.28378       -3.69283
H          7.83492       -2.70368       -2.40735
C          2.52337        2.75218        0.63214
C          2.90822        3.98373        0.10533
H          3.68991        4.01297       -0.65557
C          1.51300        2.67865        1.59246
H          1.20147        1.70975        1.98547
C          2.28737        5.15053        0.54156
H          2.57683        6.12127        0.13613
C          0.88656        3.84297        2.02576
H          0.08758        3.79211        2.76570
C          1.27461        5.07283        1.49750
Cl         0.48200        6.52027        2.02938
C          2.51088       -1.27848        1.52374
C          3.62163       -0.79431        2.21613
H          3.93040        0.24318        2.08342
C          2.10714       -2.60597        1.67727
H          1.24608       -2.95917        1.10632
C          4.32704       -1.64312        3.06458
H          5.19915       -1.28024        3.61074
C          2.80631       -3.45251        2.53081
H          2.50185       -4.49258        2.65805
C          3.91627       -2.96593        3.22108
Cl         4.79551       -4.01806        4.28156
