96
Cat362.ts34.5.log	Energy: -1633969.0084590
C          1.19876       -1.04913       -2.97281
H          0.81720       -0.71215       -3.94071
H          2.28741       -0.97835       -2.87141
C          0.54449       -2.16204       -2.34926
H         -0.34771       -2.59964       -2.80753
H          1.17574       -2.90631       -1.84601
H          0.28024       -1.73569       -0.84498
Ir        -0.01074       -0.18586       -1.38870
C          2.72636       -1.28243        0.33727
C          3.24589        1.27651       -0.87456
C          1.70006        1.20400        1.52656
C         -2.69992        1.34194        0.26768
C         -3.34018       -1.23824       -0.79059
C         -1.66177       -1.07954        1.57360
P         -1.92705       -0.28570       -0.07405
P          1.89356        0.30393       -0.06950
C         -0.66240        1.30512       -2.35172
O         -1.05925        2.23563       -2.91173
C          2.02708       -2.24630        1.08398
H          1.04030       -2.01073        1.48930
C          3.94577       -1.65563       -0.23529
H          4.50411       -0.94061       -0.84355
C          2.55440       -3.51366        1.28686
H          1.98796       -4.23539        1.88315
C          4.45946       -2.93985       -0.04479
H          5.41235       -3.20606       -0.51081
C          3.78469       -3.88876        0.72519
C          4.34212       -5.26386        0.94656
H          5.25307       -5.43032        0.35487
H          4.59696       -5.42270        2.00712
H          3.61178       -6.04110        0.67175
C          3.02800        1.67812       -2.19741
H          2.08725        1.39102       -2.67195
C          4.44041        1.66155       -0.21952
C          4.75823        1.33186        1.21073
H          4.45062        0.31551        1.48672
H          4.23701        2.01784        1.89715
H          5.83772        1.42816        1.39403
C          3.96091        2.44101       -2.89271
H          3.76027        2.74312       -3.92304
C          5.36834        2.42403       -0.94170
H          6.29627        2.72172       -0.44538
C          5.14181        2.81416       -2.25861
H          5.88972        3.41189       -2.78561
C          1.79550        0.54054        2.75603
H          2.04059       -0.52138        2.78080
C          1.40349        2.58929        1.51147
C          1.29366        3.38805        0.24519
H          0.76726        2.82969       -0.54376
H          2.28643        3.64582       -0.15469
H          0.74764        4.32448        0.42508
C          1.60384        1.21041        3.95975
H          1.68683        0.66301        4.90152
C          1.21293        3.24047        2.73688
H          0.98364        4.30996        2.72619
C          1.30824        2.57050        3.95320
H          1.15406        3.11117        4.89003
C         -4.00391        1.66303       -0.11983
H         -4.63668        0.91030       -0.59385
C         -1.90882        2.34935        0.83403
H         -0.87554        2.13170        1.10520
C         -4.50472        2.94844        0.08067
H         -5.52630        3.17712       -0.23546
C         -2.42026        3.62192        1.04917
H         -1.78210        4.38204        1.50931
C         -3.72960        3.94915        0.67270
C         -4.26129        5.33830        0.86724
H         -3.99479        5.73546        1.85845
H         -3.83913        6.02805        0.11767
H         -5.35535        5.37035        0.76748
C         -3.24349       -1.53671       -2.15394
H         -2.34868       -1.19020       -2.68243
C         -4.48307       -1.64729       -0.06410
C         -4.69763       -1.36167        1.39535
H         -4.36422       -0.35472        1.67784
H         -4.13894       -2.06765        2.02979
H         -5.76329       -1.45481        1.64793
C         -4.24001       -2.24770       -2.81603
H         -4.14154       -2.46568       -3.88193
C         -5.47054       -2.36644       -0.75055
H         -6.35888       -2.68819       -0.19970
C         -5.35775       -2.67241       -2.10442
H         -6.15113       -3.23551       -2.60229
C         -1.57015       -0.28685        2.72356
H         -1.72629        0.78967        2.65366
C         -1.46578       -2.47707        1.68331
C         -1.58225       -3.42799        0.52693
H         -1.20157       -2.99841       -0.40777
H         -2.63369       -3.69946        0.34059
H         -1.02580       -4.35324        0.73299
C         -1.28699       -0.83962        3.96861
H         -1.21675       -0.18935        4.84313
C         -1.17894       -3.00941        2.94711
H         -1.02655       -4.08919        3.03293
C         -1.08724       -2.21119        4.08359
H         -0.86056       -2.66189        5.05273
