96
Cat482.ts34.5.log	Energy: -1867793.1533940
C          1.00852       -4.16442       -0.37206
H          0.97332       -4.74465       -1.29767
H          1.99876       -4.13148        0.09177
C         -0.15268       -4.20288        0.47605
H         -1.05760       -4.71066        0.13215
H         -0.00307       -4.28888        1.55862
H         -0.40340       -2.68758        0.89886
Ir         0.03771       -2.25397       -0.66242
O          2.15581       -0.77665        1.64181
O          3.27378       -1.57173       -0.41690
O          1.76618        0.53940       -0.52090
O         -2.04677       -0.04358       -2.01398
O         -3.06906       -1.32404       -0.04334
O         -1.39357        0.52032        0.39780
P         -1.62578       -0.76181       -0.59716
P          1.79651       -1.02028        0.02355
C         -0.07786       -2.45598       -2.55985
O         -0.14943       -2.55544       -3.70304
C          1.17734       -0.55363        2.57384
C          0.83914       -1.58512        3.45047
H          1.34470       -2.54772        3.35034
C          0.55034        0.68890        2.66697
H          0.80482        1.47800        1.95815
C         -0.12003       -1.36442        4.43695
H         -0.37982       -2.17035        5.12755
C         -0.40983        0.89882        3.65329
H         -0.90778        1.86917        3.71511
C         -0.74433       -0.12128        4.54333
H         -1.49354        0.05131        5.31937
C          4.51100       -1.02661       -0.14453
C          5.07339       -1.11660        1.12513
H          4.52300       -1.61832        1.92051
C          5.20677       -0.40924       -1.18140
H          4.75317       -0.36731       -2.17257
C          6.31491       -0.53024        1.36196
H          6.74788       -0.59065        2.36439
C          6.44225        0.17274       -0.92685
H          6.97140        0.67554       -1.74100
C          7.01347        0.13848        0.35183
C          8.31881        0.82587        0.62941
H          8.79824        0.43349        1.53759
H          8.16889        1.90881        0.77829
H          9.02431        0.70837       -0.20673
C          2.75144        1.49870       -0.52649
C          2.99803        2.14212       -1.73703
H          2.41730        1.85172       -2.61489
C          3.46732        1.85764        0.61584
H          3.27318        1.35523        1.56224
C          3.99205        3.11378       -1.81329
H          4.18537        3.60525       -2.77090
C          4.46510        2.82102        0.51665
H          5.03942        3.07674        1.41134
C          4.75662        3.45984       -0.69444
C          5.87692        4.45415       -0.79062
H          5.76152        5.11195       -1.66393
H          6.84893        3.94184       -0.89097
H          5.93527        5.08666        0.10777
C         -3.32263        0.23967       -2.44178
C         -3.79108        1.55173       -2.40670
H         -3.14822        2.34322       -2.02054
C         -4.11767       -0.79206       -2.94034
H         -3.71793       -1.80717       -2.96342
C         -5.08158        1.82350       -2.85720
H         -5.45283        2.85047       -2.82486
C         -5.40668       -0.50777       -3.38435
H         -6.03359       -1.31575       -3.76865
C         -5.89525        0.79872       -3.33941
H         -6.90739        1.01791       -3.68654
C         -3.87985       -0.72337        0.89115
C         -5.08937       -0.15773        0.49682
H         -5.37507       -0.17543       -0.55564
C         -3.49453       -0.70526        2.23045
H         -2.53511       -1.13512        2.52286
C         -5.90580        0.44038        1.45376
H         -6.84971        0.89188        1.13622
C         -4.32103       -0.09910        3.17121
H         -4.00340       -0.07471        4.21724
C         -5.53968        0.48640        2.80418
C         -6.43733        1.11389        3.83110
H         -7.05846        1.90834        3.39259
H         -5.86003        1.54943        4.65979
H         -7.12202        0.36749        4.26782
C         -1.63119        1.85211        0.17552
C         -2.66184        2.49156        0.86008
H         -3.29580        1.91840        1.53733
C         -0.80958        2.56634       -0.69545
H         -0.00299        2.04396       -1.20959
C         -2.87659        3.85164        0.64889
H         -3.69413        4.34685        1.18006
C         -1.04208        3.92351       -0.89497
H         -0.39692        4.47546       -1.58405
C         -2.07924        4.59237       -0.23148
C         -2.30260        6.06311       -0.43409
H         -3.33000        6.35487       -0.17314
H         -2.11767        6.35924       -1.47728
H         -1.62146        6.65770        0.19759
