80
Cat476.ts34.5.log	Energy: -2733720.4610080
C         -0.64176       -3.63985       -0.25439
H         -0.34034       -4.33682        0.53218
H         -1.71076       -3.66735       -0.48921
C          0.28876       -3.42115       -1.32894
H          1.28530       -3.87038       -1.28868
H         -0.10915       -3.37390       -2.34910
H          0.34058       -1.84317       -1.54169
Ir         0.20184       -1.68809        0.13189
O         -1.86398        0.46060       -1.46465
C         -3.27266       -1.51167       -0.26419
C         -2.20572        0.65397        1.25274
O          2.22756        0.56421        1.53031
C          3.37366       -0.50506       -0.72362
C          1.37156        1.52032       -0.82169
P          1.77395       -0.04184        0.02872
P         -1.75749       -0.50888       -0.08474
C          0.66198       -2.12456        1.91794
O          0.92118       -2.36500        3.01793
C         -2.65760        1.56585       -1.60398
C         -2.23632        2.78791       -1.07511
H         -1.30384        2.82699       -0.51181
C         -3.85682        1.48547       -2.31374
H         -4.17725        0.52553       -2.71975
C         -3.00834        3.92904       -1.26678
H         -2.66480        4.88301       -0.86042
C         -4.62792        2.63328       -2.49477
H         -5.56529        2.56762       -3.05251
C         -4.20832        3.85664       -1.97458
H         -4.81389        4.75328       -2.12346
C         -3.65698       -1.95098       -1.53689
H         -3.11607       -1.58957       -2.41491
C         -3.94801       -2.01267        0.85540
H         -3.64701       -1.70175        1.85910
C         -4.71287       -2.84344       -1.69691
H         -5.01789       -3.18072       -2.68889
C         -5.00353       -2.90723        0.70916
H         -5.53550       -3.29232        1.58057
C         -5.38482       -3.31423       -0.56946
Cl        -6.70009       -4.42318       -0.75813
C         -1.21119        1.08710        2.13603
H         -0.20386        0.66964        2.06327
C         -3.49701        1.18997        1.36751
H         -4.28710        0.86897        0.68518
C         -1.48842        2.04380        3.10807
H         -0.71280        2.38078        3.79737
C         -3.78813        2.14275        2.33630
H         -4.78982        2.56596        2.42305
C         -2.77666        2.56831        3.19842
Cl        -3.13000        3.76213        4.39959
C          3.49737        0.52643        2.04821
C          4.46874        1.43170        1.61894
H          4.22170        2.16300        0.84776
C          3.79222       -0.41530        3.03369
H          3.01371       -1.10938        3.35419
C          5.74475        1.38526        2.17565
H          6.50590        2.09106        1.83485
C          5.07044       -0.44884        3.58714
H          5.30103       -1.18621        4.35971
C          6.05090        0.44550        3.15893
H          7.05298        0.41119        3.59183
C          3.87729       -1.77898       -0.43531
H          3.27430       -2.45966        0.17343
C          4.12610        0.36121       -1.52448
H          3.74628        1.35721       -1.76254
C          5.11886       -2.17822       -0.91561
H          5.52072       -3.16574       -0.68421
C          5.36142       -0.03360       -2.02779
H          5.94996        0.63452       -2.65838
C          5.85360       -1.29969       -1.71235
Cl         7.39429       -1.79061       -2.32511
C          1.49834        2.75888       -0.18591
H          1.83807        2.79962        0.85053
C          0.90366        1.47192       -2.14057
H          0.76076        0.50692       -2.63237
C          1.17930        3.93694       -0.85918
H          1.26578        4.90556       -0.36438
C          0.59052        2.64037       -2.82381
H          0.21182        2.60766       -3.84609
C          0.72787        3.86878       -2.17527
Cl         0.28253        5.32153       -2.99995
