84
Cat417.ts34.5.log	Energy: -1784346.8289266
C         -0.83812        0.21751       -3.46525
H         -0.58406       -0.54926       -4.20260
H         -1.90249        0.47321       -3.43831
C          0.11332        1.28343       -3.27610
H          1.08010        1.24554       -3.78722
H         -0.27678        2.30627       -3.20369
H          0.21700        1.45109       -1.72409
Ir         0.10682       -0.22636       -1.58615
C         -1.56523        1.32051        1.18511
C         -3.29091        0.66710       -0.99854
C         -2.39342       -1.39786        0.66786
C          1.77169       -1.47778        1.23344
C          3.54300       -0.46650       -0.77305
C          2.14781        1.38183        0.82585
P          1.86590       -0.19686       -0.07103
P         -1.74275        0.09984       -0.18221
C          0.43480       -2.03435       -2.00984
O          0.63166       -3.14960       -2.24760
C         -1.82253        1.02794        2.52756
H         -2.17625        0.03730        2.81706
C         -1.11136        2.60497        0.85044
H         -0.87710        2.82810       -0.19480
C         -1.61661        2.00184        3.50570
H         -1.80197        1.75953        4.55531
C         -0.95278        3.60565        1.81089
C         -0.55873        5.00110        1.42416
H         -0.24026        5.05109        0.37402
H         -1.40732        5.69341        1.55061
H          0.26458        5.37832        2.04821
C         -1.19436        3.27828        3.15285
H         -1.04946        4.03809        3.92587
C         -3.84384       -0.18636       -1.96657
H         -3.35572       -1.14135       -2.18128
C         -3.92513        1.88596       -0.73828
H         -3.52328        2.56124        0.01960
C         -5.00224        0.16035       -2.65157
H         -5.44309       -0.49844       -3.40191
C         -5.08231        2.25067       -1.42620
H         -5.58786        3.19800       -1.22975
C         -5.60657        1.38250       -2.37358
F         -6.71307        1.72449       -3.03098
C         -3.65347       -1.38523        1.28701
H         -4.26097       -0.47691        1.26449
C         -1.64907       -2.58003        0.68210
H         -0.67900       -2.60467        0.18444
C         -4.14943       -2.51876        1.92138
H         -5.12859       -2.52539        2.40360
C         -2.13206       -3.72480        1.31239
H         -1.55427       -4.65029        1.32947
C         -3.37595       -3.67665        1.92644
F         -3.84802       -4.76481        2.52997
C          2.50197       -2.66726        1.13576
H          3.23209       -2.80171        0.33531
C          0.82568       -1.33974        2.25511
H          0.22300       -0.43075        2.31059
C          2.28529       -3.68621        2.06148
H          2.85397       -4.61592        1.98286
C          0.60758       -2.34916        3.19613
C         -0.44757       -2.18245        4.24938
H         -0.44501       -1.16382        4.66470
H         -1.44747       -2.35819        3.81759
H         -0.31353       -2.89394        5.07617
C          1.35360       -3.52790        3.08519
H          1.19562       -4.33446        3.80639
C          3.69522       -0.78667       -2.12352
H          2.79698       -0.86948       -2.74322
C          4.68397       -0.34082        0.03286
H          4.58014       -0.08038        1.08944
C          4.96132       -0.99201       -2.66929
H          5.09838       -1.24523       -3.72205
C          5.95230       -0.54202       -0.49720
H          6.85252       -0.44862        0.11291
C          6.07213       -0.86698       -1.84633
F          7.28550       -1.05759       -2.35700
C          2.28250        1.49794        2.21136
H          2.21635        0.61401        2.84703
C          2.26980        2.53466        0.03711
H          2.17448        2.45512       -1.04912
C          2.49590        2.74149        2.80552
H          2.57775        2.84921        3.88835
C          2.51080        3.77490        0.61230
H          2.61143        4.67866        0.00889
C          2.60344        3.86182        1.99720
F          2.78134        5.05869        2.55960
