100
Cat403.ts34.5.log	Energy: -1822620.2658458
C          0.93436       -1.65094       -2.88758
H          0.69532       -1.32866       -3.90481
H          1.98477       -1.92135       -2.74255
C         -0.05529       -2.42089       -2.18412
H         -1.03961       -2.59080       -2.63020
H          0.29554       -3.27199       -1.58576
H         -0.11690       -1.77357       -0.72588
Ir         0.04245       -0.28842       -1.47300
C          2.54837       -1.84419        0.26946
C          3.39953        0.82105       -0.77153
C          1.86349        0.69504        1.52413
C         -2.26241        1.93386        0.34671
C         -3.41249       -0.25441       -0.94060
C         -1.70293       -0.88637        1.37433
P         -1.81545        0.17914       -0.11757
P          1.97182       -0.13577       -0.11734
C         -0.09716        1.13473       -2.69524
O         -0.13585        2.01187       -3.45681
C          1.70386       -2.53510        1.15789
H          0.86029       -2.00890        1.61001
C          3.57702       -2.55740       -0.38320
C          4.50880       -1.97047       -1.40614
H          5.31439       -1.39224       -0.92917
H          4.00273       -1.28910       -2.10137
H          4.97706       -2.77288       -1.99326
C          1.89247       -3.87626        1.46239
H          1.21671       -4.36869        2.16566
C          3.74055       -3.91653       -0.06727
H          4.53489       -4.47095       -0.57520
C          2.92976       -4.57590        0.84789
H          3.09346       -5.63483        1.06218
C          3.25432        1.55125       -1.94821
H          2.31050        1.46795       -2.48868
C          4.60828        0.92854       -0.05173
O          4.71821        0.16994        1.05484
C          5.83106        0.31213        1.88882
H          6.76498        0.00604        1.38486
H          5.66026       -0.34673        2.74952
H          5.94069        1.34988        2.24833
C          4.27285        2.37787       -2.42252
H          4.13440        2.94005       -3.34810
C          5.62871        1.76426       -0.51505
H          6.56514        1.85284        0.03640
C          5.45515        2.48300       -1.69845
H          6.26207        3.13029       -2.05132
C          2.21490        0.12189        2.74530
H          2.63498       -0.88468        2.75548
C          1.37884        2.02410        1.52119
O          1.14694        2.56408        0.31804
C          0.77419        3.91010        0.21254
H         -0.18450        4.10971        0.71762
H          0.65374        4.10959       -0.85884
H          1.55587        4.57224        0.62489
C          2.03393        0.80420        3.94877
H          2.31255        0.32877        4.89192
C          1.17441        2.70456        2.72707
H          0.77157        3.71737        2.72333
C          1.49524        2.08727        3.93653
H          1.33479        2.62831        4.87242
C         -2.21457        2.73619       -0.80773
H         -1.89705        2.28628       -1.74787
C         -2.71598        2.52013        1.55066
C         -2.92819        1.82018        2.86340
H         -2.03785        1.89708        3.50735
H         -3.16144        0.76079        2.73673
H         -3.75758        2.30028        3.40327
C         -2.56826        4.07733       -0.80701
H         -2.52224        4.65074       -1.73546
C         -3.03167        3.89157        1.53476
H         -3.37116        4.34701        2.46960
C         -2.96514        4.67096        0.38827
H         -3.23657        5.72878        0.42642
C         -3.41292       -0.48496       -2.31316
H         -2.44686       -0.43480       -2.82749
C         -4.63367       -0.32548       -0.24266
O         -4.58253       -0.10925        1.08746
C         -5.76018       -0.16364        1.83981
H         -6.49295        0.59222        1.50795
H         -5.47690        0.04738        2.87872
H         -6.22915       -1.16199        1.79343
C         -4.59043       -0.77728       -3.00340
H         -4.56523       -0.94863       -4.08156
C         -5.81591       -0.62479       -0.92492
H         -6.76451       -0.68531       -0.39109
C         -5.78834       -0.84737       -2.30288
H         -6.72124       -1.07710       -2.82402
C         -1.02225       -0.45696        2.51202
H         -0.62712        0.55732        2.54555
C         -2.11184       -2.23793        1.31608
O         -2.65613       -2.65027        0.15805
C         -3.05486       -3.97978       -0.00085
H         -2.20438       -4.67594        0.10589
H         -3.45970       -4.05918       -1.01772
H         -3.84229       -4.26128        0.72022
C         -0.81862       -1.29736        3.60721
H         -0.28563       -0.92082        4.48121
C         -1.91273       -3.08424        2.41065
H         -2.24233       -4.12243        2.36790
C         -1.27826       -2.60730        3.55809
H         -1.12865       -3.27889        4.40696
