118
Cat443.ts34.5.log	Energy: -1782412.3789303
C         -0.92157       -0.34751       -3.37411
H         -0.58235       -1.17962       -3.99820
H         -2.00861       -0.21150       -3.38592
C         -0.09612        0.83962       -3.36808
H          0.86123        0.82359       -3.89834
H         -0.59700        1.81154       -3.45997
H         -0.03722        1.26143       -1.88284
Ir         0.06651       -0.37601       -1.47751
C         -2.41536        1.54682        0.37956
C         -3.37747       -0.82227       -0.95877
C         -1.72051       -1.11670        1.51462
C          2.47095       -1.15731        1.02044
C          3.40880        0.57465       -1.14542
C          1.62485        1.70193        0.97637
P          1.88422        0.20381       -0.10932
P         -1.84553       -0.16473       -0.09186
C          0.52585       -2.18912       -1.62843
O          0.71923       -3.33067       -1.73095
C         -2.36331        2.15058        1.65464
O         -1.79788        1.44555        2.66202
C         -1.85769        1.93006        3.97133
H         -1.43592        1.14466        4.61140
H         -1.26353        2.85238        4.09851
H         -2.89575        2.12554        4.29096
C         -2.87717        2.37250       -0.67576
O         -2.84063        1.82914       -1.91084
C         -3.35665        2.53436       -3.00329
H         -3.23520        1.88132       -3.87708
H         -2.80582        3.47404       -3.18265
H         -4.42783        2.76594       -2.87119
C         -3.34545        3.67248       -0.46413
H         -3.71120        4.27368       -1.29486
C         -2.84883        3.44668        1.87935
H         -2.81885        3.88084        2.87723
C         -3.34298        4.19524        0.82254
H         -3.71540        5.20646        1.00022
H         -3.25916       -0.36140       -1.94935
C         -4.75963       -0.39906       -0.45955
H         -4.80092        0.68817       -0.29602
H         -4.97967       -0.86465        0.51370
C         -5.83001       -0.81914       -1.46463
H         -6.82956       -0.53053       -1.09902
H         -5.67249       -0.26583       -2.40901
C         -5.77885       -2.31699       -1.74709
H         -6.53284       -2.59351       -2.50255
H         -6.04887       -2.86435       -0.82526
C         -4.38811       -2.75428       -2.19424
H         -4.15857       -2.29990       -3.17507
H         -4.35754       -3.84605       -2.34377
C         -3.31747       -2.33178       -1.19193
H         -3.48559       -2.87150       -0.24453
H         -2.31712       -2.61759       -1.55256
H         -1.03041       -0.49492        2.10354
C         -1.03073       -2.47489        1.35192
H         -0.06874       -2.33882        0.84117
H         -1.62575       -3.14609        0.71348
C         -0.81325       -3.13751        2.70878
H         -0.33655       -4.12128        2.57009
H         -0.09394       -2.53259        3.28540
C         -2.10202       -3.26618        3.50983
H         -1.90194       -3.71502        4.49719
H         -2.79115       -3.95589        2.98914
C         -2.78018       -1.91048        3.66172
H         -2.13600       -1.24624        4.26734
H         -3.73104       -2.00904        4.21159
C         -3.02350       -1.26750        2.29996
H         -3.71283       -1.91617        1.73482
H         -3.52728       -0.29702        2.41501
C          2.21859       -1.24730        2.40667
O          1.51713       -0.24558        2.98423
C          1.40564       -0.18096        4.37611
H          0.91312        0.77343        4.60144
H          0.79041       -1.00354        4.78083
H          2.39380       -0.19545        4.86698
C          3.10874       -2.27565        0.42813
O          3.32074       -2.20510       -0.89649
C          3.82228       -3.31003       -1.59583
H          3.84671       -3.01587       -2.65262
H          3.15963       -4.18328       -1.48793
H          4.84477       -3.56792       -1.26968
C          3.51067       -3.38814        1.17516
H          3.99713       -4.23191        0.68908
C          2.64782       -2.34428        3.16522
H          2.45411       -2.38357        4.23571
C          3.28783       -3.40609        2.54408
H          3.60661       -4.26737        3.13540
H          3.33131       -0.23431       -1.88566
C          4.78773        0.46188       -0.49273
H          4.87212       -0.46149        0.09685
H          4.94719        1.29463        0.21065
C          5.87431        0.50142       -1.56465
H          6.87158        0.43085       -1.09957
H          5.76797       -0.38848       -2.21145
C          5.77595        1.76144       -2.41846
H          6.53551        1.74757       -3.21744
H          6.00614        2.63977       -1.78781
C          4.38091        1.93098       -3.01087
H          4.19065        1.12305       -3.74032
H          4.31491        2.87857       -3.57078
C          3.30429        1.88253       -1.92958
H          3.44228        2.74408       -1.25473
H          2.30432        1.98066       -2.37855
H          0.88521        1.33685        1.70344
C          0.95839        2.88059        0.25959
H          0.04504        2.53402       -0.24532
H          1.61654        3.29300       -0.51993
C          0.62014        3.98507        1.25693
H          0.14823        4.83167        0.73244
H         -0.13843        3.60519        1.96030
C          1.83900        4.44563        2.04578
H          1.55595        5.22096        2.77712
H          2.56569        4.91725        1.35912
C          2.50831        3.26768        2.74294
H          1.82069        2.85651        3.50480
H          3.41208        3.59604        3.28266
C          2.86124        2.17024        1.74425
H          3.59763        2.57760        1.03191
H          3.34997        1.32597        2.25268
