96
Cat419.ts34.5.log	Energy: -1633977.7542467
C         -0.90662        0.46334       -3.39946
H         -0.60272       -0.24242       -4.17779
H         -1.98159        0.67060       -3.37651
C         -0.00728        1.55227       -3.11756
H          0.96578        1.59267       -3.61659
H         -0.44706        2.54765       -2.97653
H          0.09553        1.60651       -1.57501
Ir         0.02132       -0.08471       -1.53801
C         -1.73275        1.11829        1.39364
C         -3.32872        0.86720       -0.94382
C         -2.54953       -1.46589        0.49067
C          1.64016       -1.30114        1.30709
C          3.43456       -0.76386       -0.85330
C          2.46420        1.40691        0.61777
P          1.85631       -0.16556       -0.11442
P         -1.85974        0.11256       -0.14807
C          0.25261       -1.89635       -1.99307
O          0.37070       -3.02128       -2.23504
C         -2.44631        0.81415        2.55729
H         -3.10358       -0.05650        2.58680
C         -0.88346        2.23102        1.38931
H         -0.30258        2.44358        0.48769
C         -2.30059        1.61322        3.68973
H         -2.84953        1.36391        4.60151
C         -0.73963        3.05164        2.51236
C          0.14949        4.25950        2.47708
H          0.81528        4.23694        1.60455
H         -0.44734        5.18542        2.42883
H          0.77700        4.32124        3.37900
C         -1.45617        2.71991        3.66936
H         -1.34627        3.33713        4.56574
C         -3.97175        0.15792       -1.97111
H         -3.63069       -0.85017       -2.22379
C         -3.77982        2.15587       -0.64629
H         -3.30370        2.72880        0.15263
C         -5.03994        0.71765       -2.66045
H         -5.53059        0.13966       -3.44908
C         -4.84475        2.71562       -1.35213
H         -5.18295        3.72424       -1.09764
C         -5.49575        2.01131       -2.36811
C         -6.63502        2.61491       -3.13605
H         -6.96681        3.56201       -2.68781
H         -6.34451        2.82272       -4.17908
H         -7.49975        1.93417       -3.17291
C         -3.91101       -1.62960        0.78044
H         -4.61306       -0.81832        0.57356
C         -1.67936       -2.52645        0.76112
H         -0.61828       -2.42391        0.52954
C         -4.38000       -2.81865        1.33215
H         -5.44687       -2.92512        1.54916
C         -2.15275       -3.70746        1.32417
H         -1.44585       -4.51477        1.53371
C         -3.51018       -3.87821        1.61769
C         -4.02158       -5.16975        2.18503
H         -4.24890       -5.88884        1.38012
H         -3.27743       -5.64333        2.84209
H         -4.94626       -5.02105        2.76131
C          2.07283       -2.62843        1.20958
H          2.66326       -2.95177        0.34989
C          0.86252       -0.91343        2.40678
H          0.49038        0.11172        2.47316
C          1.73630       -3.54136        2.20783
H          2.07683       -4.57684        2.12915
C          0.51864       -1.82131        3.41175
C         -0.36556       -1.40748        4.54998
H         -0.30572       -0.32649        4.73660
H         -1.41818       -1.63751        4.31398
H         -0.10927       -1.94202        5.47662
C          0.97131       -3.14208        3.29949
H          0.71004       -3.86693        4.07556
C          3.51254       -1.04659       -2.21570
H          2.61180       -0.92773       -2.82526
C          4.58909       -0.90319       -0.06879
H          4.55328       -0.67874        1.00042
C          4.71439       -1.47105       -2.78366
H          4.75377       -1.69172       -3.85396
C          5.78115       -1.32786       -0.63859
H          6.67028       -1.43391       -0.01017
C          5.86620       -1.62079       -2.00907
C          7.16228       -2.07794       -2.61108
H          7.06245       -2.26679       -3.68892
H          7.95347       -1.32415       -2.47078
H          7.51532       -3.00703       -2.13578
C          2.94231        1.52751        1.92562
H          2.89123        0.67685        2.60825
C          2.56075        2.51598       -0.23144
H          2.19842        2.43455       -1.25970
C          3.49195        2.72869        2.37029
H          3.85454        2.80122        3.39964
C          3.12384        3.70672        0.21361
H          3.19732        4.55566       -0.47209
C          3.59483        3.83855        1.52659
C          4.14709        5.14210        2.02148
H          4.67003        5.68894        1.22337
H          3.33610        5.79515        2.38687
H          4.84849        4.99421        2.85508
