88
Cat427.ts34.5.log	Energy: -2877409.7466248
C         -1.18716       -0.05893       -3.72987
H         -0.69855       -0.58952       -4.55113
H         -2.17708       -0.44576       -3.47289
C         -0.93557        1.35028       -3.61419
H         -0.20183        1.82351       -4.27167
H         -1.77177        2.01549       -3.36969
H         -0.62827        1.60433       -2.05344
Ir         0.17245        0.13324       -2.05396
C         -2.32006        0.20197        0.60425
O         -2.39843       -1.76477       -1.22942
O         -0.64327       -1.76270        0.66068
C          3.42866        0.57317       -0.70885
O          1.82599        2.62767       -0.46719
O          1.24113        0.55278        0.93842
P          1.66903        0.97865       -0.60987
P         -1.25778       -0.75746       -0.52108
C          1.44852       -1.04843       -2.84889
O          2.19991       -1.78383       -3.31787
C         -2.63408       -0.21176        1.90235
H         -2.17752       -1.11561        2.30767
C         -2.92161        1.34785        0.07593
H         -2.65305        1.67410       -0.93336
C         -3.54317        0.52876        2.65360
H         -3.79007        0.21445        3.67056
C         -3.86088        2.08053        0.80720
C         -4.55356        3.26921        0.20896
H         -4.61107        4.10818        0.91842
H         -4.03980        3.63048       -0.69175
H         -5.58853        3.01529       -0.07403
C         -4.15302        1.65695        2.11005
H         -4.87440        2.22196        2.70730
C         -3.41175       -2.33671       -0.50547
C         -3.19187       -3.51554        0.20714
H         -2.20654       -3.98361        0.18454
C         -4.66895       -1.73246       -0.49304
H         -4.81888       -0.80761       -1.05215
C         -4.22852       -4.08583        0.94060
H         -4.07016       -5.00761        1.50249
C         -5.70716       -2.29824        0.23869
H         -6.69307       -1.83163        0.26044
C         -5.47972       -3.47140        0.95744
Cl        -6.76816       -4.17469        1.87941
C          0.37607       -2.64216        0.48089
C          0.52275       -3.38750       -0.69175
H         -0.17857       -3.24843       -1.51569
C          1.27023       -2.81677        1.53927
H          1.14907       -2.21302        2.43980
C          1.56505       -4.30392       -0.80467
H          1.69305       -4.88244       -1.72044
C          2.29925       -3.74662        1.43579
H          2.99555       -3.89732        2.26228
C          2.44260       -4.48635        0.26148
Cl         3.72134       -5.65160        0.13165
C          4.37908        1.51679       -1.11570
H          4.07423        2.54430       -1.31959
C          3.80978       -0.74546       -0.44752
H          3.05907       -1.47898       -0.13885
C          5.70790        1.12665       -1.24422
H          6.45992        1.85469       -1.55769
C          5.14469       -1.14504       -0.57733
C          5.54011       -2.56520       -0.30710
H          5.24226       -2.87830        0.70496
H          5.04178       -3.25443       -1.00557
H          6.62518       -2.70785       -0.40354
C          6.08436       -0.18870       -0.97675
H          7.13168       -0.48364       -1.08415
C          0.74574        3.46037       -0.56206
C         -0.14547        3.58724        0.50277
H          0.00547        3.00086        1.41043
C          0.55855        4.19281       -1.73358
H          1.26288        4.06395       -2.55703
C         -1.21980        4.46572        0.40203
H         -1.91909        4.57722        1.23134
C         -0.51677        5.06937       -1.83942
H         -0.67534        5.65179       -2.74832
C         -1.39985        5.20157       -0.76809
Cl        -2.74108        6.29440       -0.89939
C          1.71377        0.97116        2.14619
C          0.91272        0.64946        3.24590
H         -0.02254        0.11625        3.06687
C          2.90045        1.68325        2.32880
H          3.52474        1.95070        1.47779
C          1.29995        1.02049        4.52785
H          0.67886        0.77350        5.39028
C          3.28707        2.05492        3.61447
H          4.21368        2.60997        3.76870
C          2.49193        1.72219        4.70855
Cl         2.98127        2.18964        6.30414
