92
Cat470.ts34.5.log	Energy: -1584088.1320045
C          2.52302       -0.14873       -2.64967
H          2.18508       -0.18415       -3.68901
H          3.10444        0.74271       -2.39907
C          2.90059       -1.39132       -2.03612
H          2.75082       -2.32982       -2.57577
H          3.78649       -1.39448       -1.38987
H          2.19312       -1.35371       -0.58583
Ir         0.87231       -0.64558       -1.33449
O          2.65712        1.84709        0.15072
O          0.37525        2.56522       -0.39908
O          0.66512        1.06045        1.55518
O         -1.39836       -1.43515        1.10849
O         -1.60191       -2.76476       -1.04796
O          0.13204       -3.26206        0.66389
P         -0.48644       -2.01008       -0.16495
P          1.11682        1.17408        0.00218
C         -0.40777       -0.49981       -2.73644
O         -1.20081       -0.38268       -3.56529
C          3.76929        1.08915        0.35135
C          4.92324        1.41545       -0.36591
H          4.88762        2.26047       -1.05632
C          3.78531        0.01902        1.25142
H          2.88708       -0.22258        1.81957
C          6.08220        0.66450       -0.19366
H          6.98013        0.92457       -0.75926
C          4.94924       -0.73223        1.40856
H          4.95277       -1.57075        2.10971
C          6.09973       -0.41854        0.68711
H          7.00896       -1.00965        0.81478
C          0.40026        3.03320       -1.74290
H          1.00908        3.95290       -1.75703
H          0.89228        2.28814       -2.39162
C         -1.00310        3.30285       -2.23820
H         -0.92027        3.71329       -3.26031
H         -1.53726        2.34239       -2.33726
C         -1.79857        4.25185       -1.35441
H         -1.21422        5.17534       -1.19217
H         -1.91524        3.78993       -0.36143
C         -3.16002        4.60532       -1.92918
H         -3.06703        5.13026       -2.89363
H         -3.76632        3.70318       -2.11142
H         -3.73039        5.25561       -1.24868
C          1.01729        1.97792        2.59476
H          0.83269        1.41690        3.52435
H          2.09641        2.19299        2.53536
C          0.21550        3.26253        2.58164
H          0.53379        3.84698        3.46395
H          0.49294        3.85326        1.69476
C         -1.28809        3.04564        2.60563
H         -1.55763        2.43059        3.48200
H         -1.57071        2.44659        1.72643
C         -2.08033        4.34103        2.62273
H         -1.85824        4.94293        3.51919
H         -1.84520        4.96242        1.74369
H         -3.16324        4.14527        2.60920
C         -2.31209       -0.42920        1.11769
C         -2.96692       -0.20921        2.33368
H         -2.68413       -0.81775        3.19434
C         -2.65469        0.32871       -0.00434
H         -2.14904        0.16571       -0.95411
C         -3.96234        0.75771        2.42401
H         -4.46929        0.91828        3.37853
C         -3.65167        1.29745        0.10170
H         -3.91575        1.88177       -0.78197
C         -4.31383        1.51708        1.30726
H         -5.09728        2.27441        1.37652
C         -2.53364       -3.72074       -0.52973
H         -2.58554       -4.51358       -1.29225
H         -2.13387       -4.16671        0.39347
C         -3.89950       -3.10848       -0.30106
H         -4.57040       -3.91546        0.04364
H         -3.84301       -2.38698        0.52980
C         -4.48695       -2.42698       -1.52862
H         -4.64150       -3.17671       -2.32499
H         -3.74600       -1.71572       -1.92750
C         -5.78791       -1.70085       -1.23083
H         -6.55556       -2.38930       -0.84106
H         -5.63232       -0.91406       -0.47508
H         -6.19857       -1.22097       -2.13216
C          1.33026       -3.18360        1.42327
H          1.55233       -4.22202        1.71290
H          2.15185       -2.83320        0.77322
C          1.20616       -2.28877        2.63966
H          2.19704       -2.24802        3.12706
H          0.98171       -1.26242        2.30166
C          0.14880       -2.72950        3.64123
H          0.42726       -3.71024        4.06603
H         -0.79843       -2.88093        3.10107
C         -0.05458       -1.71524        4.75457
H          0.87672       -1.53794        5.31718
H         -0.38006       -0.74591        4.34304
H         -0.81839       -2.04628        5.47470
