114
Cat460.ts34.5.log	Energy: -1686827.1934171
C         -1.24838        1.52620       -2.89278
H         -0.88224        1.30900       -3.90019
H         -2.32385        1.36666       -2.76741
C         -0.63772        2.62526       -2.19488
H          0.20259        3.15592       -2.65144
H         -1.29044        3.28495       -1.61025
H         -0.29566        2.06738       -0.71148
Ir         0.06650        0.60139       -1.45057
C         -3.08231        1.05662        0.06755
C         -2.56256       -1.65528       -1.00398
C         -1.45585       -0.88808        1.49058
C          1.93157       -0.92927        1.19153
C          3.52950        0.27616       -0.88674
C          2.17143        2.01130        0.92662
P          1.89737        0.46124       -0.04036
P         -1.74909       -0.20052       -0.19666
C          0.81764       -0.62762       -2.65581
O          1.27891       -1.41031       -3.38295
C         -2.88986        2.04437        1.05971
O         -1.76546        1.93210        1.80137
C         -1.58139        2.76154        2.91155
H         -0.63225        2.45474        3.36750
H         -1.50715        3.82524        2.62821
H         -2.39526        2.64254        3.64835
C         -4.21069        1.21011       -0.76581
O         -4.36081        0.30759       -1.75913
C         -5.43767        0.41283       -2.64447
H         -5.33458       -0.41621       -3.35653
H         -5.41887        1.36568       -3.20156
H         -6.40811        0.31931       -2.12633
C         -5.12769        2.25268       -0.57767
H         -5.99975        2.34610       -1.22298
C         -3.80362        3.08457        1.25968
H         -3.64190        3.82523        2.04138
C         -4.92043        3.17556        0.43854
H         -5.63679        3.98673        0.58687
H         -2.77625       -1.33926       -2.03256
H         -3.52937       -1.87038       -0.52447
C         -1.64939       -2.87316       -1.03005
H         -0.63639       -2.54239       -1.31807
H         -1.55831       -3.31834       -0.02285
C         -2.11751       -3.96125       -2.00039
H         -2.26482       -3.47847       -2.98456
C         -1.04571       -5.03066       -2.16996
H         -0.11920       -4.59640       -2.57482
H         -1.37310       -5.82615       -2.85775
H         -0.80634       -5.50557       -1.20289
C         -3.44547       -4.57706       -1.57364
H         -3.77501       -5.35187       -2.28369
H         -4.24551       -3.82433       -1.50856
H         -3.35312       -5.05160       -0.58156
H         -0.82492       -0.16885        2.02468
H         -0.82609       -1.77172        1.30687
C         -2.68584       -1.23761        2.31020
H         -3.23630       -0.30945        2.53709
H         -3.38205       -1.86130        1.72063
C         -2.37255       -1.96887        3.61924
H         -1.57696       -1.39603        4.13448
C         -3.59666       -1.99756        4.52687
H         -3.95530       -0.98098        4.75302
H         -3.38201       -2.50228        5.48212
H         -4.42629       -2.54089        4.04416
C         -1.84664       -3.37819        3.37110
H         -1.59884       -3.88542        4.31702
H         -0.93791       -3.37564        2.75200
H         -2.60755       -3.98833        2.85526
C          1.69889       -0.81615        2.57562
O          1.45823        0.42218        3.06507
C          1.32636        0.60424        4.44520
H          1.23552        1.68605        4.61014
H          0.42496        0.10545        4.84288
H          2.20999        0.23717        4.99500
C          2.10286       -2.23414        0.67695
O          2.29062       -2.31800       -0.64964
C          2.48275       -3.56297       -1.26425
H          2.54027       -3.35995       -2.34016
H          1.63508       -4.24136       -1.07567
H          3.41694       -4.04096       -0.92246
C          2.08240       -3.36569        1.50142
H          2.22666       -4.36062        1.08341
C          1.68219       -1.94189        3.40989
H          1.49972       -1.83996        4.47818
C          1.87719       -3.20412        2.86504
H          1.85850       -4.08060        3.51670
H          3.62864        1.18798       -1.49703
H          3.40594       -0.55183       -1.59337
C          4.73815        0.07543        0.01222
H          4.90177        0.98350        0.61844
H          4.53623       -0.73528        0.73524
C          6.03212       -0.25624       -0.73784
H          6.18090        0.52073       -1.51146
C          7.22447       -0.20942        0.21074
H          7.32073        0.77787        0.68930
H          8.16837       -0.42296       -0.31488
H          7.11362       -0.95826        1.01309
C          5.95309       -1.60865       -1.43887
H          6.88654       -1.83246       -1.97828
H          5.13120       -1.65097       -2.16862
H          5.79007       -2.41532       -0.70379
H          2.91691        1.84978        1.71825
H          1.21391        2.21026        1.42455
C          2.57422        3.17514        0.02676
H          3.65821        3.12444       -0.16959
H          2.07740        3.08296       -0.95607
C          2.23567        4.54684        0.62009
H          2.54130        4.53551        1.68400
C          3.01776        5.65123       -0.08068
H          4.10441        5.50168        0.01758
H          2.77440        6.64341        0.33096
H          2.78030        5.67110       -1.15751
C          0.73735        4.82478        0.55651
H          0.47279        5.74167        1.10650
H          0.14654        3.99461        0.97064
H          0.41526        4.95677       -0.48915
