52
Cat465.ts34.5.log	Energy: -1099535.5402079
C         -3.72902        1.29705       -0.12430
H         -4.54481        0.87226        0.46703
H         -3.56209        2.36231        0.06571
C         -3.58635        0.82477       -1.48022
H         -4.21121       -0.00152       -1.82955
H         -3.39401        1.56301       -2.26712
H         -2.01240        0.58881       -1.66135
Ir        -2.00889       -0.00217       -0.08663
O          0.85849        1.63038       -0.50886
C         -0.92166        3.35050        0.64618
C          0.30916        1.32128        2.17338
O          0.90026       -1.46280        0.35253
C         -0.84156       -3.29831       -0.66442
C          0.32587       -1.29580       -2.32654
P         -0.43099       -1.52292       -0.68688
P         -0.47002        1.58080        0.54352
C         -2.71925       -1.15963        1.23796
O         -3.11102       -1.88283        2.05163
C          2.01062        2.31782       -0.26658
C          3.04465        1.72194        0.46193
H          2.90017        0.71603        0.85834
C          2.18084        3.59822       -0.80017
H          1.36988        4.03782       -1.38406
C          4.23867        2.41175        0.65881
H          5.04392        1.93917        1.22658
C          3.37882        4.28053       -0.59749
H          3.50766        5.28016       -1.01977
C          4.41023        3.69283        0.13439
H          5.34825        4.22993        0.29078
H         -1.70888        3.45731        1.40723
H         -0.06259        3.97975        0.92397
H         -1.32612        3.68428       -0.32018
H          0.73055        0.30712        2.19098
H          1.08256        2.06602        2.41413
H         -0.49984        1.37077        2.91716
C          2.02648       -2.22120        0.21501
C          3.08170       -1.77517       -0.58618
H          2.98001       -0.82917       -1.12025
C          2.14757       -3.41462        0.93160
H          1.32016       -3.73310        1.56860
C          4.24866       -2.53138       -0.67470
H          5.07214       -2.17658       -1.29919
C          3.31819       -4.16373        0.83568
H          3.40918       -5.09506        1.39989
C          4.37064       -3.72815        0.03065
H          5.28742       -4.31731       -0.04113
H          0.02883       -3.93157       -0.89332
H         -1.24649       -3.56009        0.32344
H         -1.62970       -3.46757       -1.41225
H          0.72514       -0.27267       -2.36821
H          1.11886       -2.02869       -2.53454
H         -0.47449       -1.39288       -3.07440
