94
Cat447.ts34.5.log	Energy: -2926614.7628699
C         -1.20579       -1.05321       -3.16953
H         -1.02775       -2.06033       -3.55750
H         -2.25936       -0.75478       -3.17078
C         -0.21793       -0.05214       -3.46095
H          0.69982       -0.33408       -3.98460
H         -0.57221        0.95168       -3.72813
H          0.05555        0.68669       -2.05888
Ir        -0.11081       -0.80292       -1.32039
C         -2.55670        1.69658       -1.35591
C         -3.45998       -0.78988       -0.11834
C         -1.89703        0.90015        1.36996
C          1.62676       -0.28831        1.80882
C          3.17590       -1.51788       -0.24016
C          2.74040        1.17609       -0.46094
P          1.76205       -0.33243       -0.02910
P         -1.96527        0.26959       -0.35326
C          0.03673       -2.65167       -0.97900
O          0.10926       -3.79387       -0.80100
C         -1.74334        2.85139       -1.39397
O         -0.63070        2.79925       -0.64174
C          0.25237        3.88607       -0.61943
H          1.11887        3.55666       -0.03727
H          0.59370        4.15500       -1.63240
H         -0.20907        4.77125       -0.14659
C         -3.65821        1.64973       -2.23733
O         -4.32578        0.48606       -2.30971
C         -5.51246        0.38699       -3.04475
H         -5.89031       -0.62938       -2.87597
H         -5.33964        0.53314       -4.12512
H         -6.26754        1.11311       -2.69828
C         -4.00581        2.76027       -3.01841
H         -4.87400        2.72279       -3.67496
C         -2.08352        3.96269       -2.17399
H         -1.46405        4.85829       -2.16800
C         -3.22366        3.90728       -2.96761
H         -3.49809        4.77223       -3.57588
C         -3.47897       -2.09353       -0.61113
H         -2.60270       -2.47183       -1.14131
C         -4.57688       -0.31184        0.57817
H         -4.57148        0.70169        0.98711
C         -4.59755       -2.90741       -0.43827
H         -4.61191       -3.92855       -0.82275
C         -5.70145       -1.10783        0.75508
H         -6.57497       -0.73655        1.29368
C         -5.70554       -2.40532        0.23849
Cl        -7.10696       -3.40369        0.45285
C         -1.59219       -0.06357        2.34044
H         -1.38237       -1.09075        2.02855
C         -2.17509        2.20544        1.77974
H         -2.45931        2.96319        1.04834
C         -1.54748        0.26575        3.68824
H         -1.30026       -0.48520        4.43853
C         -2.10608        2.55687        3.12702
H         -2.30953        3.57975        3.44938
C         -1.77844        1.58618        4.06962
Cl        -1.60731        2.03569        5.73811
C          1.55441        0.86572        2.61323
O          1.44239        2.05312        1.99025
C          1.48043        3.22701        2.75749
H          1.41675        4.06351        2.05181
H          0.62839        3.28289        3.45421
H          2.42328        3.31129        3.32436
C          1.53495       -1.54180        2.45478
O          1.43356       -2.59719        1.63562
C          1.52208       -3.90537        2.13259
H          1.43325       -4.56376        1.26085
H          0.70079       -4.12803        2.83456
H          2.48986       -4.07743        2.63318
C          1.55196       -1.65203        3.84870
H          1.51817       -2.62796        4.33108
C          1.58998        0.76234        4.01164
H          1.55228        1.65272        4.63607
C          1.60448       -0.48982        4.61048
H          1.61877       -0.55925        5.70063
C          4.19039       -1.66248        0.71340
H          4.13366       -1.12371        1.66232
C          3.27249       -2.23050       -1.43567
H          2.47180       -2.12369       -2.17369
C          5.26994       -2.50849        0.48592
H          6.05563       -2.62879        1.23374
C          4.35178       -3.07655       -1.68222
H          4.42161       -3.63681       -2.61598
C          5.34477       -3.21288       -0.71644
Cl         6.68683       -4.27170       -1.00364
C          3.73545        1.68402        0.38482
H          3.89905        1.23822        1.36787
C          2.58887        1.74996       -1.72273
H          1.83252        1.35077       -2.39960
C          4.52515        2.76020        0.00032
H          5.29131        3.15946        0.66693
C          3.38087        2.82176       -2.13200
H          3.25518        3.26480       -3.12133
C          4.33838        3.33036       -1.26057
Cl         5.31501        4.67724       -1.74341
