58
Cat494.ts34.5.log	Energy: -1148838.8809744
C         -4.06160        1.28476       -0.12283
H         -4.87249        0.86621        0.47962
H         -3.89648        2.35306        0.05112
C         -3.92655        0.79390       -1.47307
H         -4.55182       -0.03853       -1.80681
H         -3.74155        1.52167       -2.27142
H         -2.35286        0.55946       -1.66152
Ir        -2.33787       -0.00927       -0.07867
O          0.52115        1.62484       -0.54560
C         -1.25464        3.35664        0.59811
C         -0.00667        1.35214        2.14475
O          0.57943       -1.45098        0.36524
C         -1.15814       -3.30787       -0.61879
C         -0.00860       -1.32146       -2.31286
P         -0.75533       -1.53100       -0.66618
P         -0.79801        1.58698        0.51698
C         -3.03582       -1.15177        1.26491
O         -3.41974       -1.86609        2.09037
C          1.67250        2.32130       -0.31936
C          2.71667        1.74418        0.40853
H          2.58512        0.74261        0.82032
C          1.84123        3.59214       -0.87126
H          1.03016        4.02471       -1.46036
C          3.90784        2.44130        0.58457
H          4.71797        1.97345        1.15127
C          3.03950        4.27813       -0.68625
H          3.16006        5.27044       -1.13002
C          4.09279        3.72180        0.04781
C          5.37169        4.47612        0.27097
H          5.37537        4.96940        1.25751
H          5.51593        5.25906       -0.48727
H          6.24485        3.80744        0.24047
H         -2.03559        3.47271        1.36423
H         -0.39455        3.99184        0.85873
H         -1.66808        3.67501       -0.36966
H          0.76742        2.10150        2.36838
H         -0.80978        1.41043        2.89423
H          0.41669        0.33901        2.17216
C          1.70944       -2.20564        0.22675
C          2.75914       -1.76784       -0.58319
H          2.65584       -0.82801       -1.12780
C          1.84874       -3.38913        0.95501
H          1.03225       -3.70808        1.60587
C          3.92869       -2.51951       -0.66821
H          4.74560       -2.16128       -1.30088
C          3.02317       -4.12933        0.85923
H          3.12086       -5.05110        1.43973
C          4.08318       -3.71462        0.04294
C          5.33404       -4.53636       -0.07603
H          6.18310       -3.93018       -0.42278
H          5.20130       -5.35938       -0.79823
H          5.61074       -4.99163        0.88651
H         -0.28525       -3.93948       -0.84274
H         -1.55706       -3.55815        0.37449
H         -1.94874       -3.49119       -1.36065
H          0.38538       -0.29695       -2.36884
H          0.78729       -2.05290       -2.51479
H         -0.81211       -1.43208       -3.05541
