96
Cat435.ts34.5.log	Energy: -1882951.0772855
C          0.39377       -3.22044       -2.39929
H          0.04724       -3.36383       -3.42652
H          1.46036       -3.43098       -2.26833
C         -0.50770       -3.60764       -1.34380
H         -1.52264       -3.93111       -1.58977
H         -0.10085       -4.15202       -0.48282
H         -0.42421       -2.41947       -0.30035
Ir        -0.37897       -1.37283       -1.61288
C          1.76194       -0.52536        1.09521
C          3.13174       -1.41468       -1.32287
C          1.96626        1.26892       -1.25718
C         -1.81156        1.71185       -0.48013
C         -3.69394       -0.22814       -1.27877
C         -2.27814       -0.53917        1.26490
P         -1.98310       -0.11962       -0.51835
P          1.61099       -0.49729       -0.73042
C         -0.82179       -0.65748       -3.30059
O         -1.10063       -0.19945       -4.32927
C          1.20470        0.49694        1.87612
H          0.76099        1.37350        1.40303
C          2.27682       -1.65306        1.74989
H          2.65615       -2.49503        1.16575
C          1.21597        0.40404        3.26611
H          0.78927        1.21495        3.86167
C          2.29427       -1.76147        3.14330
C          2.87337       -2.97422        3.81312
H          2.24236       -3.31126        4.64939
H          2.98291       -3.81121        3.10866
H          3.87121       -2.75865        4.22989
C          1.76416       -0.70844        3.89958
H          1.76684       -0.77033        4.99107
H          3.05064       -2.43196       -0.91180
H          2.94612       -1.51776       -2.40277
C          4.48300       -0.82270       -1.07519
C          5.07933        0.00030       -2.04193
H          4.57204        0.16206       -2.99681
C          5.18652       -1.04256        0.11834
H          4.75886       -1.68424        0.88932
C          6.30906        0.61445       -1.82104
H          6.76960        1.25983       -2.57091
C          6.41964       -0.44133        0.35455
H          6.96690       -0.60863        1.28394
C          6.96365        0.39034       -0.61695
F          8.14039        0.97235       -0.39357
H          2.69290        1.16269       -2.07839
H          1.03066        1.61212       -1.71550
C          2.43778        2.29084       -0.26303
C          1.62683        3.39912        0.00949
H          0.67734        3.50937       -0.51634
C          3.64845        2.17508        0.43097
H          4.29855        1.32008        0.25122
C          1.99442        4.35751        0.95088
H          1.35914        5.21935        1.16443
C          4.03399        3.12480        1.37158
H          4.97513        3.03340        1.91668
C          3.19781        4.20491        1.62611
F          3.55832        5.11208        2.53541
C         -1.58175        2.35964       -1.70440
H         -1.42514        1.77534       -2.61415
C         -1.99158        2.48602        0.66752
H         -2.18402        2.00703        1.62963
C         -1.57684        3.74906       -1.76795
H         -1.41437        4.24710       -2.72677
C         -1.95821        3.88722        0.62408
C         -2.11590        4.68472        1.88491
H         -2.94236        4.30024        2.50136
H         -1.19975        4.63114        2.49629
H         -2.31239        5.74463        1.67165
C         -1.76679        4.50864       -0.61218
H         -1.75523        5.60029       -0.67049
H         -3.54084        0.06430       -2.32885
H         -3.94061       -1.30001       -1.29163
C         -4.75559        0.59745       -0.62070
C         -5.57449        0.06705        0.38563
H         -5.48391       -0.98642        0.66048
C         -4.92843        1.94797       -0.95875
H         -4.31160        2.38892       -1.74425
C         -6.51873        0.84942        1.04679
H         -7.15894        0.43557        1.82782
C         -5.86550        2.74498       -0.30984
H         -5.99860        3.79600       -0.57209
C         -6.64755        2.18589        0.69333
F         -7.54454        2.94469        1.32242
H         -1.48604       -0.02018        1.82343
H         -3.24481       -0.10432        1.56629
C         -2.20204       -2.00510        1.56803
C         -3.18251       -2.91203        1.14783
H         -4.05960       -2.55683        0.60438
C         -1.09184       -2.50923        2.25512
H         -0.31339       -1.82264        2.58926
C         -3.06264       -4.27668        1.39784
H         -3.82363       -4.98726        1.07060
C         -0.95304       -3.87018        2.51350
H         -0.08538       -4.26198        3.04761
C         -1.94309       -4.74069        2.07733
F         -1.81886       -6.04621        2.31547
