106
Cat496.ts34.5.log	Energy: -1543231.6598611
C         -1.44344       -2.90940       -1.78097
H         -1.32317       -3.94556       -1.45378
H         -2.48683       -2.59819       -1.90147
C         -0.48766       -2.39880       -2.72837
H          0.36691       -3.01716       -3.01602
H         -0.86584       -1.78210       -3.55186
H         -0.07259       -0.97082       -2.17447
Ir        -0.14321       -1.62181       -0.62214
O         -2.63487        0.31652       -1.65354
C         -3.30206       -0.95493        0.72602
C         -1.63314        1.39041        0.68099
O          1.52364        1.03383        0.45341
C          2.99320       -1.21398        0.95565
C          2.79256       -0.09122       -1.71536
P          1.78657       -0.49823       -0.22636
P         -1.90651       -0.18979       -0.20734
C          0.16996       -2.85283        0.77602
O          0.36822       -3.56592        1.66708
C         -3.89986        0.81168       -1.75234
C         -4.14616        2.17817       -1.60889
H         -3.30607        2.85394       -1.43910
C         -4.96422       -0.05189       -2.02406
H         -4.75827       -1.11360       -2.17460
C         -5.45213        2.65911       -1.67310
H         -5.63266        3.73040       -1.54755
C         -6.26297        0.44139       -2.08385
H         -7.08741       -0.24913       -2.28351
C         -6.53659        1.80214       -1.89107
C         -7.94787        2.31435       -1.90676
H         -7.97993        3.40459       -2.04322
H         -8.46280        2.08515       -0.95863
H         -8.53635        1.85286       -2.71402
H         -3.73059       -1.70116        0.03580
H         -2.80592       -1.54946        1.51118
C         -4.39400       -0.06891        1.31893
H         -3.99641        0.47222        2.19412
H         -4.70152        0.70598        0.60141
C         -5.63098       -0.85576        1.72817
H         -5.36011       -1.61941        2.48007
H         -6.00290       -1.41507        0.85024
C         -6.74990        0.02453        2.26641
H         -6.37963        0.59070        3.13956
H         -7.00102        0.78285        1.50313
C         -7.99946       -0.75106        2.65023
H         -8.79044       -0.08758        3.03197
H         -7.78375       -1.49571        3.43338
H         -8.41111       -1.29622        1.78536
H         -0.90424        1.94684        0.07117
H         -2.56855        1.97198        0.71421
C         -1.06559        1.16213        2.07692
H         -1.84337        0.74669        2.74129
H         -0.27097        0.40122        2.01266
C         -0.48585        2.42742        2.69177
H         -1.28362        3.18084        2.82650
H          0.23159        2.87049        1.98005
C          0.22025        2.18709        4.01781
H         -0.49782        1.77638        4.74981
H          0.98107        1.39923        3.87437
C          0.88020        3.43513        4.58104
H          1.38105        3.23508        5.54075
H          0.14225        4.23560        4.75208
H          1.63701        3.82835        3.88288
C          2.41766        2.05381        0.55353
C          2.45113        3.04284       -0.43369
H          1.76222        2.96966       -1.27760
C          3.26054        2.16280        1.66105
H          3.20032        1.41388        2.45241
C          3.35535        4.09458       -0.33483
H          3.37503        4.85646       -1.11934
C          4.15931        3.22385        1.74823
H          4.81606        3.29464        2.61973
C          4.23718        4.20045        0.74924
C          5.23449        5.31999        0.82562
H          5.63511        5.43417        1.84277
H          4.78723        6.27986        0.52640
H          6.08887        5.13678        0.15275
H          3.80625       -0.49135        1.13081
H          2.43898       -1.31882        1.90366
C          3.54937       -2.56371        0.51752
H          2.72482       -3.19933        0.15505
H          4.22502       -2.42611       -0.34468
C          4.28997       -3.28623        1.63365
H          3.59465       -3.44117        2.47810
H          5.10153       -2.64280        2.02076
C          4.86605       -4.62803        1.20463
H          4.04796       -5.26037        0.81744
H          5.55300       -4.47288        0.35345
C          5.59258       -5.35787        2.32266
H          5.99547       -6.32433        1.98360
H          4.91860       -5.55781        3.17110
H          6.43639       -4.76227        2.70731
H          2.73584       -0.98933       -2.35158
H          2.20506        0.67874       -2.24422
C          4.23945        0.35491       -1.52743
H          4.32275        1.06949       -0.69497
H          4.85947       -0.51192       -1.24330
C          4.82002        1.00716       -2.77407
H          4.17903        1.86093       -3.06067
H          4.77783        0.30004       -3.62261
C          6.24770        1.49882       -2.58296
H          6.26924        2.19950       -1.72911
H          6.88868        0.64891       -2.28842
C          6.82559        2.17398       -3.81597
H          7.85599        2.52106       -3.64528
H          6.22409        3.04946       -4.10973
H          6.84495        1.48654       -4.67699
