108
Cat405.ts34.5.log	Energy: -1732578.2070518
C         -0.81245        2.82920       -2.01685
H         -0.80558        2.85121       -3.11062
H         -1.78990        3.08021       -1.58840
C          0.36778        3.31645       -1.34436
H          1.25657        3.57343       -1.92599
H          0.24235        3.98906       -0.48617
H          0.59245        2.28397       -0.18932
Ir         0.17936        1.07349       -1.28290
C         -0.90712        0.12732        1.92169
C         -3.07757        1.29799        0.31513
C         -2.14167       -1.36727       -0.26169
C          1.78666       -1.87820       -0.00162
C          3.39004       -0.32209       -1.73121
C          2.84932        0.73368        0.96857
P          2.02351       -0.09368       -0.47075
P         -1.49288        0.31376        0.18159
C          0.19305        0.18698       -2.94645
O          0.20094       -0.38049       -3.95827
C         -0.44159       -1.12554        2.35243
H         -0.54723       -1.99973        1.71020
C         -0.74101        1.24053        2.77977
C         -1.16101        2.62864        2.39441
H         -2.25180        2.75827        2.44721
H         -0.84689        2.85936        1.36459
H         -0.70938        3.37159        3.06466
C          0.16534       -1.29559        3.59344
H          0.51573       -2.28741        3.88850
C         -0.13721        1.04536        4.02776
H         -0.01598        1.90885        4.68843
C          0.31762       -0.20377        4.44271
H          0.78874       -0.31959        5.42148
H         -3.50711        1.15024        1.31604
H         -2.78994        2.35683        0.23169
C         -4.10903        0.96258       -0.72686
C         -3.78687        0.87898       -2.08860
H         -2.75817        1.05474       -2.41279
C         -5.42779        0.72281       -0.33476
H         -5.67837        0.76277        0.72966
C         -4.76880        0.54561       -3.01636
H         -4.50823        0.47365       -4.07532
C         -6.42727        0.39177       -1.25487
C         -7.82473        0.11266       -0.78372
H         -7.83837       -0.75252       -0.10158
H         -8.24004        0.96953       -0.23005
H         -8.49885       -0.10539       -1.62404
C         -6.07893        0.30216       -2.60526
H         -6.84204        0.03688       -3.34233
H         -2.21270       -1.33825       -1.35806
H         -1.32458       -2.07278       -0.05086
C         -3.44516       -1.84682        0.31316
C         -4.38821       -2.42674       -0.54215
H         -4.17037       -2.50029       -1.61051
C         -3.76390       -1.72927        1.67139
H         -3.04352       -1.27565        2.35547
C         -5.61348       -2.86654       -0.05094
H         -6.34551       -3.30356       -0.73472
C         -4.99242       -2.15951        2.18130
C         -5.30046       -2.03159        3.64581
H         -4.62320       -1.31952        4.13865
H         -6.33479       -1.69446        3.81282
H         -5.18981       -3.00111        4.15953
C         -5.91897       -2.73027        1.30056
H         -6.88813       -3.06819        1.67899
C          0.93458       -2.53453       -0.90343
H          0.47159       -1.95036       -1.70132
C          2.39319       -2.63548        1.02898
C          3.38795       -2.10735        2.02163
H          2.95135       -1.34492        2.68134
H          4.26309       -1.67095        1.51964
H          3.75122       -2.92554        2.65768
C          0.64814       -3.89267       -0.80727
H         -0.01985       -4.36188       -1.53294
C          2.06196       -3.99552        1.12809
H          2.51385       -4.57756        1.93596
C          1.20470       -4.62805        0.23344
H          0.98161       -5.69153        0.34737
H          2.89224       -0.82535       -2.57391
H          3.65514        0.68487       -2.08263
C          4.57086       -1.09905       -1.24266
C          5.66776       -0.46233       -0.64294
H          5.70758        0.62886       -0.59777
C          4.56609       -2.49672       -1.30411
H          3.71853       -3.00260       -1.77486
C          6.70924       -1.21268       -0.10452
H          7.55988       -0.70661        0.35845
C          5.59708       -3.26672       -0.75619
C          5.52378       -4.76469       -0.80956
H          4.61355       -5.12705       -0.30516
H          5.47949       -5.12494       -1.84952
H          6.39331       -5.23133       -0.32600
C          6.67022       -2.60571       -0.15020
H          7.48663       -3.18864        0.28462
H          2.24007        0.46298        1.84293
H          3.84742        0.29477        1.10193
C          2.94727        2.22851        0.87460
C          3.69701        2.86756       -0.11983
H          4.23025        2.28116       -0.86886
C          2.28762        3.02243        1.81770
H          1.71351        2.52594        2.60375
C          3.76586        4.25688       -0.16812
H          4.35437        4.74266       -0.95025
C          2.34439        4.42006        1.78597
C          1.59888        5.24281        2.79692
H          1.47500        4.70074        3.74563
H          2.11763        6.18897        3.00890
H          0.59046        5.49970        2.43099
C          3.09328        5.03035        0.77475
H          3.15534        6.12112        0.73003
