84
Cat413.ts34.5.log	Energy: -1440422.7781933
C          1.57528       -2.42796       -1.47026
H          1.33746       -2.73074       -2.49381
H          2.60683       -2.08710       -1.33221
C          0.96885       -3.17921       -0.40340
H          0.23973       -3.96088       -0.63439
H          1.59433       -3.42629        0.46227
H          0.40205       -2.08621        0.63280
Ir         0.00081       -1.14927       -0.70356
C          3.12562       -0.19434        0.55907
O          1.99675        1.59674       -0.99369
O          1.03086        1.30450        1.35955
C         -2.73130        0.99607       -0.21815
O         -3.20018       -1.53462        0.29313
O         -1.69144       -0.26267        1.95012
P         -1.90377       -0.52219        0.35495
P          1.48460        0.42262        0.04611
C         -0.80503       -0.89296       -2.40331
O         -1.27848       -0.70280       -3.44062
C          3.17477       -1.07786        1.64706
H          2.25740       -1.31141        2.19547
C          4.29202        0.08696       -0.15276
H          4.23554        0.77726       -0.99781
C          4.38621       -1.65080        2.01631
H          4.43063       -2.33365        2.86842
C          5.51798       -0.49180        0.20400
C          6.75749       -0.18649       -0.58626
H          6.69348       -0.61246       -1.60071
H          6.90025        0.89900       -0.70171
H          7.65577       -0.59923       -0.10614
C          5.54790       -1.36020        1.29859
H          6.49534       -1.82038        1.59253
C          1.27749        1.91230       -2.19117
H          0.23295        1.57629       -2.06621
C          1.89646        1.16465       -3.35397
H          1.87738        0.08315       -3.15698
H          2.94142        1.47906       -3.50484
H          1.33501        1.35372       -4.28098
C          1.30618        3.41587       -2.36283
H          0.82183        3.91612       -1.51286
H          2.34324        3.77870       -2.43422
H          0.77236        3.70539       -3.28023
C          1.91160        2.25096        1.97889
H          2.90565        2.17764        1.50359
C          2.03515        1.89036        3.44475
H          2.46672        0.88659        3.56059
H          1.04443        1.89955        3.92285
H          2.68413        2.60932        3.96725
C          1.36625        3.64626        1.75402
H          1.30067        3.85738        0.67832
H          0.36311        3.74392        2.19779
H          2.02188        4.39960        2.21616
C         -3.98060        0.97061       -0.83869
H         -4.51204        0.02294       -0.93580
C         -2.04054        2.20874       -0.08270
H         -1.05770        2.20920        0.39967
C         -4.53203        2.15877       -1.31803
H         -5.50943        2.14583       -1.80671
C         -2.58990        3.40440       -0.55024
C         -1.85832        4.70808       -0.40993
H         -0.98540        4.60958        0.24837
H         -1.50122        5.06873       -1.38826
H         -2.51197        5.49124        0.00396
C         -3.84600        3.35952       -1.17286
H         -4.28984        4.28577       -1.54931
C         -3.05283       -2.92241       -0.02266
H         -2.21620       -3.00770       -0.74201
C         -4.34083       -3.36451       -0.68126
H         -4.53278       -2.77137       -1.58717
H         -5.19247       -3.23693        0.00519
H         -4.28273       -4.42502       -0.96824
C         -2.70461       -3.71301        1.22288
H         -1.77559       -3.33304        1.67331
H         -3.50715       -3.64304        1.97327
H         -2.55684       -4.77497        0.97390
C         -2.69499        0.31386        2.79287
H         -3.44141        0.82564        2.15903
C         -2.00522        1.34159        3.66440
H         -1.52246        2.10655        3.04061
H         -1.22816        0.85887        4.27643
H         -2.72740        1.83222        4.33389
C         -3.38503       -0.78162        3.58021
H         -3.89640       -1.47372        2.89835
H         -2.64979       -1.34903        4.17143
H         -4.12975       -0.35284        4.26780
