100
Cat467.ts34.5.log	Energy: -1493928.4160636
C         -1.31849       -2.84796       -1.80590
H         -1.18109       -3.86991       -1.44276
H         -2.36436       -2.57657       -1.98613
C         -0.33412       -2.33166       -2.72028
H          0.55415       -2.92767       -2.94633
H         -0.69021       -1.75250       -3.58007
H         -0.00028       -0.87245       -2.18937
Ir        -0.12097       -1.48352       -0.62483
O         -2.60586        0.37361       -1.81314
C         -3.37702       -0.90673        0.52978
C         -1.77014        1.48162        0.57049
O          1.39037        1.24351        0.50945
C          2.94029       -0.94132        1.05319
C          2.77503        0.18049       -1.62109
P          1.74202       -0.27405       -0.16534
P         -1.95082       -0.10747       -0.32439
C          0.17947       -2.67124        0.81411
O          0.36987       -3.35728        1.72757
C         -3.86398        0.85543       -2.00341
C         -4.12624        2.22344       -1.88505
H         -3.30449        2.90094       -1.64674
C         -4.89297       -0.02348       -2.35369
H         -4.66237       -1.08412       -2.47228
C         -5.42344        2.69781       -2.06766
H         -5.62510        3.76693       -1.96528
C         -6.18664        0.45904       -2.53340
H         -6.98907       -0.23459       -2.79624
C         -6.46041        1.81866       -2.37997
H         -7.47679        2.19384       -2.51732
H         -3.75035       -1.66520       -0.17905
H         -2.90882       -1.48601        1.34330
C         -4.51920       -0.04878        1.06377
H         -4.16050        0.55740        1.91264
H         -4.85777        0.66954        0.30215
C         -5.71467       -0.87921        1.50907
H         -5.39993       -1.60129        2.28464
H         -6.06550       -1.48824        0.65580
C         -6.87015       -0.03663        2.03030
H         -6.51755        0.57696        2.87841
H         -7.16860        0.68135        1.24582
C         -8.07425       -0.85920        2.45907
H         -8.89246       -0.22220        2.82812
H         -7.81153       -1.56324        3.26512
H         -8.46927       -1.45493        1.62027
H         -1.02144        2.05305       -0.00016
H         -2.72019        2.03947        0.54920
C         -1.27521        1.27225        1.99662
H         -2.07259        0.82503        2.61558
H         -0.44977        0.54240        1.97694
C         -0.78230        2.55795        2.64404
H         -1.61687        3.27699        2.73690
H         -0.04698        3.03405        1.97307
C         -0.13943        2.34169        4.00589
H         -0.87772        1.89630        4.69629
H          0.66176        1.58840        3.90209
C          0.43358        3.61428        4.60788
H          0.89024        3.43094        5.59262
H         -0.34696        4.38075        4.74131
H          1.20898        4.04425        3.95315
C          2.23089        2.29881        0.66979
C          2.25791        3.30775       -0.29809
H          1.61730        3.21142       -1.17693
C          3.01346        2.41790        1.82223
H          2.95238        1.64321        2.58814
C          3.09624        4.40691       -0.13148
H          3.11826        5.18838       -0.89492
C          3.84761        3.52254        1.98126
H          4.45919        3.60868        2.88267
C          3.90092        4.51557        1.00325
H          4.55764        5.37859        1.13119
H          3.72121       -0.18926        1.24955
H          2.36357       -1.06551        1.98532
C          3.55694       -2.27082        0.63422
H          2.76564       -2.93612        0.25129
H          4.25005       -2.11078       -0.21015
C          4.29254       -2.96452        1.77173
H          3.58089       -3.14216        2.59791
H          5.07073       -2.29260        2.17839
C          4.92597       -4.28622        1.36138
H          4.14102       -4.94678        0.95324
H          5.63015       -4.10845        0.52893
C          5.64628       -4.98953        2.50022
H          6.09126       -5.94182        2.17397
H          4.95661       -5.21188        3.33027
H          6.45829       -4.36494        2.90666
H          2.77302       -0.71758       -2.26017
H          2.17522        0.92873       -2.16717
C          4.19789        0.67772       -1.39100
H          4.22198        1.43935       -0.59696
H          4.82623       -0.15421       -1.03105
C          4.81966        1.27109       -2.64733
H          4.18332        2.10155       -3.00431
H          4.81439        0.51882       -3.45725
C          6.23662        1.78332       -2.43172
H          6.22499        2.53005       -1.61797
H          6.87007        0.95483       -2.06794
C          6.85597        2.39222       -3.67906
H          7.87775        2.75507       -3.49063
H          6.26197        3.24600       -4.04330
H          6.90997        1.65758       -4.49867
