98
Cat456.ts34.5.log	Energy: -3115360.6839820
C         -1.67377        1.18473       -3.41897
H         -1.62765        0.52471       -4.28928
H         -2.68784        1.47828       -3.13350
C         -0.61486        2.14557       -3.26095
H          0.24239        2.12063       -3.93894
H         -0.87696        3.16121       -2.94276
H         -0.24760        2.05662       -1.70156
Ir        -0.43475        0.39825       -1.83117
C         -3.67931       -0.38780       -0.99071
O         -1.76070       -0.94136        0.86435
O         -2.65680        1.36438        0.78253
C          1.42722       -1.05838        0.76821
O          2.83573       -0.14472       -1.41875
O          1.86015        1.60812        0.12467
P          1.43605        0.16849       -0.58780
P         -2.09125        0.19826       -0.29260
C         -0.23874       -1.30616       -2.65905
O         -0.16569       -2.34785       -3.14949
C         -4.66058        0.52009       -1.43093
O         -4.39152        1.82906       -1.24674
C         -5.24733        2.79445       -1.79474
H         -4.79060        3.76797       -1.57733
H         -5.34498        2.67491       -2.88747
H         -6.25164        2.75931       -1.33828
C         -3.82950       -1.74740       -1.33412
O         -2.78863       -2.54253       -1.04421
C         -2.82116       -3.90012       -1.38274
H         -1.84894       -4.31198       -1.08573
H         -2.94973       -4.04264       -2.46883
H         -3.62009       -4.43415       -0.84066
C         -4.99327       -2.20664       -1.96117
H         -5.12162       -3.26315       -2.19183
C         -5.82477        0.06813       -2.06334
H         -6.59655        0.76848       -2.37894
C         -5.98293       -1.29266       -2.30238
H         -6.89384       -1.64723       -2.79030
C         -2.63064       -1.62841        1.65030
C         -2.25448       -2.92682        2.00483
H         -1.30717       -3.31268        1.62595
C         -3.83332       -1.09665        2.12093
H         -4.11427       -0.07767        1.85649
C         -3.07336       -3.69535        2.82213
H         -2.78566       -4.70950        3.10439
C         -4.65956       -1.87072        2.93387
H         -5.60274       -1.46613        3.30442
C         -4.27989       -3.16433        3.28084
Cl        -5.31013       -4.12419        4.29532
C         -2.30162        2.67519        0.82486
C         -0.96870        3.09322        0.79833
H         -0.16136        2.36630        0.72492
C         -3.32293        3.61790        0.96977
H         -4.35441        3.26676        1.01253
C         -0.66595        4.45076        0.88245
H          0.37424        4.78017        0.85862
C         -3.02171        4.97212        1.06782
H         -3.81405        5.71290        1.18828
C         -1.69043        5.38552        1.01034
Cl        -1.31103        7.07543        1.11750
C          0.93206       -0.75593        2.05155
O          0.50370        0.50159        2.26156
C         -0.29534        0.77902        3.38615
H         -0.65581        1.80694        3.25697
H         -1.15802        0.09607        3.43660
H          0.28308        0.71523        4.32346
C          1.66322       -2.41164        0.45437
O          1.89409       -2.66629       -0.84157
C          2.21697       -3.96292       -1.26436
H          2.33694       -3.90835       -2.35236
H          1.40801       -4.67525       -1.02981
H          3.16045       -4.30835       -0.80964
C          1.62359       -3.40224        1.44127
H          1.86495       -4.43729        1.20381
C          0.87882       -1.74286        3.04329
H          0.52570       -1.50230        4.04462
C          1.25472       -3.04412        2.73377
H          1.22137       -3.80899        3.51315
C          3.94153       -0.89619       -1.15942
C          4.51429       -1.54500       -2.25620
H          4.03784       -1.43241       -3.23155
C          4.52804       -1.01534        0.10161
H          4.10518       -0.49846        0.96203
C          5.65780       -2.31858       -2.09850
H          6.10949       -2.82628       -2.95230
C          5.66900       -1.79760        0.26391
H          6.13204       -1.89310        1.24713
C          6.22857       -2.44930       -0.83211
Cl         7.64903       -3.42313       -0.62497
C          3.09710        1.90005        0.63161
C          3.32923        1.82428        2.00484
H          2.51150        1.52578        2.65910
C          4.11609        2.30098       -0.23404
H          3.91136        2.35807       -1.30362
C          4.59135        2.12268        2.51146
H          4.78889        2.06384        3.58296
C          5.37861        2.59467        0.26861
H          6.18760        2.89421       -0.39916
C          5.61320        2.49619        1.63994
Cl         7.18907        2.84796        2.26779
