84
Cat415.ts34.5.log	Energy: -1535368.6365775
C         -0.88229       -3.11452       -1.52484
H         -0.52062       -4.06789       -1.12932
H         -1.96846       -3.06559       -1.65486
C         -0.05921       -2.46042       -2.50823
H          0.91758       -2.88289       -2.76296
H         -0.56370       -2.01771       -3.37626
H          0.01911       -0.98261       -2.05937
Ir         0.04578       -1.49981       -0.44706
C         -1.80397        1.61035       -0.51725
C         -3.35643       -0.72489       -0.99441
C         -2.47277       -0.12071        1.65055
C          1.70524        0.84206        1.54391
C          3.48368       -0.99453        0.25658
C          2.41105        1.07372       -1.27675
P          1.87006       -0.13412        0.00303
P         -1.86045       -0.18095       -0.08301
C          0.37954       -2.51001        1.10617
O          0.56075       -3.09996        2.08386
C         -2.52634        2.58223        0.18260
H         -3.14965        2.29852        1.03231
C         -0.99894        2.00466       -1.59206
H         -0.41062        1.24490       -2.11391
C         -2.43223        3.92074       -0.19332
H         -2.98722        4.67924        0.36471
C         -0.90559        3.34203       -1.98994
C         -0.06096        3.73856       -3.16414
H         -0.68752        3.93230       -4.05074
H          0.50650        4.65828       -2.95844
H          0.65694        2.94972       -3.42357
C         -1.62972        4.29831       -1.26666
H         -1.55883        5.35283       -1.54844
C         -3.94423       -1.94937       -0.63904
C         -3.86895       -0.02352       -2.09156
C         -5.53510       -1.74126       -2.44581
C         -4.94906       -0.53183       -2.81314
C         -5.03004       -2.44751       -1.35300
H         -3.54631       -2.51013        0.21158
H         -5.48210       -3.39744       -1.05720
H         -6.38424       -2.13495       -3.00945
H         -5.34004        0.02958       -3.66546
H         -3.42674        0.93283       -2.37952
C         -1.54037       -0.16927        2.69223
C         -3.83150        0.03273        1.96175
C         -3.30448        0.10775        4.31930
C         -4.24360        0.14178        3.28847
C         -1.95265       -0.04676        4.01737
H         -0.48301       -0.30577        2.46101
H         -1.20684       -0.08140        4.81467
H         -3.62910        0.19373        5.35928
H         -5.30622        0.25509        3.51739
H         -4.57323        0.06493        1.16034
C          2.19471        0.32643        2.74943
H          2.79734       -0.58405        2.75398
C          0.91205        1.99745        1.56467
H          0.49574        2.38658        0.63241
C          1.89938        0.97218        3.94891
H          2.28452        0.56788        4.88831
C          0.60969        2.65138        2.76203
C         -0.28730        3.85296        2.77485
H         -0.27847        4.37493        1.80821
H         -1.32899        3.54578        2.96682
H         -0.00057        4.56337        3.56421
C          1.11936        2.12452        3.95567
H          0.89154        2.62190        4.90253
C          3.58057       -2.37066        0.04614
C          4.63132       -0.27313        0.61465
C          5.93870       -2.30306        0.56413
C          5.85017       -0.92446        0.77098
C          4.80441       -3.02354        0.20061
H          2.67702       -2.91734       -0.24010
H          4.86754       -4.10201        0.03692
H          6.89730       -2.81340        0.68643
H          6.73851       -0.35438        1.05372
H          4.57040        0.80630        0.77494
C          2.44833        0.62421       -2.60277
C          2.90018        2.35041       -0.98052
C          3.46829        2.69742       -3.30576
C          3.41941        3.15850       -1.99214
C          2.97952        1.42628       -3.60922
H          2.06756       -0.37290       -2.83891
H          3.01181        1.05665       -4.63697
H          3.88151        3.32984       -4.09505
H          3.79491        4.15494       -1.74672
H          2.88239        2.71791        0.04751
