68
Cat408.ts34.5.log	Energy: -1153061.4877171
C         -2.83066       -2.32869        0.11304
H         -3.82365       -2.12870       -0.29930
H         -2.37798       -3.24756       -0.27315
C         -2.63104       -2.01547        1.51015
H         -3.42562       -1.50787        2.06469
H         -2.10711       -2.75320        2.13042
H         -1.23262       -1.29753        1.56487
Ir        -1.64661       -0.53620        0.11403
C          1.85865       -1.36378       -0.04300
C          0.17185       -3.21167       -1.38432
C          0.69375       -0.62069       -2.56198
C          0.46610        2.21554       -0.27748
C         -1.88097        2.80171        1.24674
C          0.25550        1.26852        2.46521
P         -0.69909        1.42641        0.89758
P          0.25550       -1.41095       -0.95224
C         -2.81422        0.44681       -0.98625
O         -3.49127        1.09615       -1.67120
C          3.07153       -0.94459       -0.60300
H          3.12050       -0.61848       -1.64261
C          1.84505       -1.75962        1.29987
H          0.88913       -2.05474        1.74530
C          4.22877       -0.92064        0.17389
H          5.16982       -0.58347       -0.26792
C          2.99727       -1.75040        2.09126
C          2.94583       -2.20234        3.52209
H          3.76395       -1.76723        4.11384
H          1.99269       -1.92474        3.99625
H          3.03630       -3.29912        3.59276
C          4.19437       -1.31580        1.50870
H          5.10713       -1.28446        2.11021
H         -0.76537       -3.33683       -1.95101
C          1.35463       -3.80702       -2.12729
H          2.29656       -3.64880       -1.57964
H          1.47166       -3.36721       -3.12943
H          0.01008       -3.72695       -0.42285
H          1.22487       -4.89233       -2.26314
H          1.57279       -1.12727       -2.99203
C         -0.45540       -0.61102       -3.55544
H         -1.33366       -0.10085       -3.13579
H         -0.76593       -1.63025       -3.83499
H          0.99875        0.40948       -2.31995
H         -0.16281       -0.08862       -4.47910
C         -0.05214        2.79395       -1.44417
H         -1.13095        2.82459       -1.61464
C          1.85453        2.14492       -0.11776
H          2.28150        1.67234        0.76933
C          0.80865        3.29773       -2.41509
H          0.39722        3.74490       -3.32327
C          2.73114        2.64455       -1.08752
C          4.21802        2.55532       -0.90132
H          4.69161        3.54531       -0.99293
H          4.47517        2.14130        0.08303
H          4.67546        1.90674       -1.66609
C          2.18893        3.22404       -2.23996
H          2.85691        3.62018       -3.01005
H         -2.38642        3.01529        0.29207
C         -2.90630        2.43101        2.30520
H         -2.44048        2.26851        3.29000
H         -3.42611        1.50231        2.02214
H         -1.31179        3.70557        1.51810
H         -3.65665        3.22764        2.42098
H          1.08160        0.57460        2.24149
C          0.74913        2.55134        3.11447
H         -0.08554        3.17889        3.46069
H          1.35345        3.15691        2.42267
H         -0.41353        0.71011        3.13955
H          1.37415        2.32549        3.99245
