92
Cat493.ts34.5.log	Energy: -1928012.8200114
C         -1.58563       -2.45562       -3.15860
H         -1.42581       -3.53672       -3.12537
H         -2.64324       -2.17374       -3.17961
C         -0.66893       -1.68226       -3.96147
H          0.19464       -2.17586       -4.41561
H         -1.08386       -0.89772       -4.60472
H         -0.29234       -0.42263       -3.06880
Ir        -0.29866       -1.46313       -1.74029
O         -1.64362        1.43595       -0.74684
C         -3.66628       -0.42327       -1.20206
C         -1.94494       -0.46067        1.19120
O          1.41841       -0.22340        0.80265
C          3.13637       -1.08485       -1.26398
C          1.61009        1.45911       -1.33586
P          1.48280       -0.33369       -0.86737
P         -1.89825       -0.23316       -0.64714
C          0.25590       -3.06370       -0.89018
O          0.60999       -4.01034       -0.32647
C         -2.43880        2.49479       -0.41606
C         -2.75585        3.39675       -1.43476
H         -2.39270        3.18986       -2.44340
C         -2.85781        2.74728        0.89305
H         -2.58582        2.06479        1.69705
C         -3.52158        4.52459       -1.15322
H         -3.76744        5.22341       -1.95656
C         -3.63334        3.87256        1.16185
H         -3.97240        4.05491        2.18424
C         -3.97326        4.76278        0.14443
H         -4.57944        5.64389        0.36468
H         -3.65833       -0.09027       -2.25188
H         -3.80163       -1.51640       -1.23649
C         -4.77071        0.24303       -0.43861
C         -5.22277       -0.26393        0.78772
H         -4.80392       -1.19220        1.18392
C         -5.37920        1.40363       -0.93347
H         -5.05951        1.80905       -1.89530
C         -6.21079        0.38947        1.52058
H         -6.56290        0.00034        2.47754
C         -6.36763        2.06819       -0.21717
H         -6.82944        2.98150       -0.59508
C         -6.76293        1.55794        1.01288
F         -7.70059        2.19543        1.71336
H         -1.11045        0.16356        1.54399
H         -2.87957       -0.03777        1.59315
C         -1.73150       -1.87090        1.65804
C         -2.49501       -2.94520        1.18253
H         -3.27697       -2.77842        0.43922
C         -0.72384       -2.14494        2.58858
H         -0.10616       -1.32740        2.96577
C         -2.26334       -4.24707        1.61504
H         -2.84640       -5.08779        1.23574
C         -0.47717       -3.44016        3.03438
H          0.31746       -3.65309        3.75156
C         -1.25038       -4.47930        2.53632
F         -1.01623       -5.72464        2.94770
C          2.33670       -0.61518        1.73029
C          2.94090        0.35667        2.52990
H          2.69379        1.40533        2.36450
C          2.62260       -1.96993        1.92336
H          2.10554       -2.72454        1.32725
C          3.85747       -0.02953        3.50458
H          4.33347        0.73468        4.12362
C          3.55057       -2.34220        2.89525
H          3.77815       -3.40115        3.03910
C          4.17547       -1.37651        3.68460
H          4.90065       -1.67404        4.44507
H          3.19448       -2.00265       -0.65912
H          2.97153       -1.42295       -2.29824
C          4.39195       -0.27187       -1.17216
C          4.84569        0.43657       -2.29345
H          4.28980        0.37178       -3.23298
C          5.15270       -0.20467        0.00250
H          4.84472       -0.76940        0.88316
C          5.99823        1.21754       -2.24449
H          6.35496        1.76984       -3.11556
C          6.30412        0.57316        0.07045
H          6.89461        0.63250        0.98632
C          6.70997        1.28347       -1.05298
F          7.81020        2.03145       -0.99118
H          2.27609        1.50438       -2.21124
H          0.59398        1.70950       -1.67008
C          2.04569        2.40275       -0.25410
C          1.09856        2.88460        0.66030
H          0.05865        2.57159        0.56067
C          3.37277        2.82248       -0.11627
H          4.12932        2.46883       -0.81745
C          1.45969        3.75387        1.68484
H          0.72332        4.13709        2.39348
C          3.75288        3.68931        0.90622
H          4.78771        4.01804        1.01684
C          2.78967        4.14391        1.79734
F          3.14526        4.97555        2.77698
