104
Cat402.ts34.5.log	Energy: -1448862.1566438
C         -1.51859       -1.15178       -2.96234
H         -1.71653       -2.20675       -3.17335
H         -2.41054       -0.52048       -3.05660
C         -0.26394       -0.61445       -3.44884
H          0.47254       -1.29591       -3.88413
H         -0.28723        0.34748       -3.97860
H          0.21652        0.27520       -2.28360
Ir        -0.29573       -0.93003       -1.21691
C         -1.17263        2.30266        0.17930
C         -3.43530        0.63243       -0.57861
C         -1.91169       -0.02984        1.73022
C          2.65921       -2.19652        0.25311
C          2.93890        0.23367       -1.31794
C          1.92887        0.39905        1.32624
P          1.77137       -0.64938       -0.18653
P         -1.67334        0.53616       -0.01372
C         -0.50568       -2.71715       -0.65361
O         -0.64717       -3.80827       -0.29398
C         -0.70218        2.77239        1.41621
H         -0.71537        2.11782        2.28827
C         -1.11663        3.17354       -0.93457
C         -1.58377        2.76447       -2.30076
H         -2.66876        2.91722       -2.41664
H         -1.37558        1.70121       -2.48679
H         -1.08579        3.35859       -3.08022
C         -0.19840        4.06100        1.57037
H          0.15360        4.39222        2.55011
C         -0.60265        4.46367       -0.76071
H         -0.55652        5.12855       -1.62791
C         -0.14691        4.91612        0.47361
H          0.24979        5.92882        0.57544
H         -3.42598        0.99928       -1.61551
H         -3.96800        1.38525        0.02330
C         -4.11325       -0.73133       -0.53320
H         -3.41014       -1.48408       -0.92847
H         -4.31204       -1.02196        0.51382
C         -5.42383       -0.81290       -1.31826
H         -5.19622       -0.53432       -2.36509
C         -5.94866       -2.24364       -1.32066
H         -5.20330       -2.94341       -1.72910
H         -6.86641       -2.33571       -1.92210
H         -6.18797       -2.57423       -0.29596
C         -6.47652        0.15640       -0.79230
H         -7.41443        0.07541       -1.36357
H         -6.14232        1.20320       -0.85222
H         -6.71144       -0.05949        0.26406
H         -0.92461        0.03467        2.21552
H         -2.10431       -1.10875        1.62687
C         -2.98313        0.65017        2.57367
H         -2.95020        1.74188        2.42405
H         -3.98207        0.33222        2.22759
C         -2.86950        0.35962        4.07284
H         -1.87484        0.71886        4.40236
C         -3.92572        1.13878        4.84720
H         -3.85251        2.22003        4.65149
H         -3.82591        0.98406        5.93276
H         -4.93975        0.81625        4.55739
C         -2.95123       -1.13150        4.38068
H         -2.88530       -1.31722        5.46388
H         -2.14249       -1.70051        3.89803
H         -3.90948       -1.55021        4.02920
C          3.70911       -2.64449       -0.56071
H          4.02530       -2.04943       -1.41855
C          2.24459       -2.99576        1.34178
C          1.12768       -2.60159        2.26595
H          0.34365       -2.03641        1.74324
H          1.49917       -1.97571        3.09486
H          0.66063       -3.49223        2.70818
C          4.35857       -3.84935       -0.31093
H          5.17226       -4.17450       -0.96343
C          2.91212       -4.20342        1.57510
H          2.58769       -4.82558        2.41388
C          3.95988       -4.63338        0.76752
H          4.45633       -5.58413        0.97544
H          2.86793       -0.28464       -2.28777
H          3.97170        0.11687       -0.95486
C          2.57516        1.70617       -1.48273
H          1.47653        1.81290       -1.50074
H          2.91797        2.27683       -0.60163
C          3.14750        2.36056       -2.74097
H          2.77812        1.77991       -3.60797
C          2.62513        3.78577       -2.87588
H          1.52478        3.80703       -2.89381
H          2.99225        4.26486       -3.79681
H          2.94965        4.40482       -2.02289
C          4.67113        2.32757       -2.76775
H          5.06493        2.80774       -3.67699
H          5.06275        1.29937       -2.74118
H          5.08719        2.86661       -1.89958
H          1.18993        0.04558        2.05854
H          1.57538        1.39107        1.00626
C          3.31209        0.46093        1.95445
H          3.58524       -0.54429        2.31692
H          4.06899        0.71510        1.19089
C          3.43374        1.46498        3.10458
H          2.59961        1.26952        3.80571
C          4.74046        1.25564        3.86078
H          4.81586        0.23279        4.26137
H          4.83539        1.95756        4.70388
H          5.60550        1.41659        3.19579
C          3.31355        2.90483        2.61688
H          3.36624        3.61639        3.45570
H          2.36806        3.08895        2.08590
H          4.13745        3.14792        1.92452
