82
Cat497.ts34.5.log	Energy: -1346030.2308327
C          0.09320       -3.11786       -1.86433
H          0.23015       -3.11529       -2.94911
H          0.75126       -3.81717       -1.34077
C         -1.24893       -2.96032       -1.37650
H         -2.05829       -2.78804       -2.09099
H         -1.56529       -3.58484       -0.53148
H         -1.21039       -1.85679       -0.28522
Ir         0.00038       -1.06876       -1.16824
O          0.55280       -1.61091        2.20882
C          2.25793       -3.00143        0.79843
C          2.51393       -0.00859        1.15826
O         -0.89055        2.12813       -0.04444
C         -1.56802        1.71808       -2.64255
C         -2.96076        0.53434       -0.20383
P         -1.31744        0.81514       -1.02645
P          1.33949       -1.38455        0.72493
C          0.99499       -0.35411       -2.59294
O          1.63053        0.11304       -3.44270
C         -0.64839       -1.07115        2.53463
C         -1.76729       -1.90257        2.62029
H         -1.65444       -2.96000        2.37272
C         -0.77691        0.28458        2.83922
H          0.09194        0.93857        2.75340
C         -2.99288       -1.38281        3.02788
H         -3.86035       -2.04605        3.09046
C         -2.00715        0.78968        3.24994
H         -2.09310        1.85410        3.48585
C         -3.13685       -0.02914        3.35793
C         -4.45266        0.51823        3.82981
H         -5.29838        0.02459        3.32823
H         -4.52931        1.59879        3.64183
H         -4.58279        0.36331        4.91409
H          1.40653       -3.69259        0.65439
C          3.21350       -3.18445       -0.37690
H          3.42014       -4.25503       -0.53347
H          2.80200       -2.77498       -1.31123
H          4.17789       -2.69235       -0.18754
C          2.90822       -3.35527        2.12986
H          2.23289       -3.16376        2.97439
H          3.17765       -4.42420        2.13962
H          3.83555       -2.78655        2.28962
H          1.85194        0.86525        1.04345
C          3.05562       -0.00166        2.58172
H          3.47724        0.99188        2.80454
H          2.27146       -0.21341        3.32186
H          3.85776       -0.73977        2.72225
C          3.61724        0.13016        0.11629
H          3.22082        0.09609       -0.90916
H          4.12354        1.09867        0.24373
H          4.37683       -0.65782        0.22290
C          0.33368        2.67443        0.12582
C          0.57972        3.30216        1.35255
H         -0.21849        3.32051        2.09679
C          1.33548        2.67292       -0.84832
H          1.17313        2.19909       -1.81505
C          1.81463        3.88749        1.60701
H          1.98717        4.36687        2.57482
C          2.56437        3.27082       -0.57856
H          3.33503        3.25378       -1.35413
C          2.83901        3.87523        0.65153
C          4.18996        4.45897        0.94787
H          4.86944        3.69640        1.36616
H          4.12636        5.27527        1.68209
H          4.66698        4.85449        0.03922
H         -0.52159        1.93818       -2.91776
C         -2.12698        0.81863       -3.73975
H         -1.99357        1.30116       -4.72073
H         -1.61117       -0.15282       -3.76063
H         -3.20283        0.63481       -3.60696
C         -2.31046        3.04426       -2.54554
H         -1.95079        3.65835       -1.70839
H         -2.17066        3.61859       -3.47538
H         -3.39250        2.89108       -2.41965
H         -2.63693       -0.04899        0.67351
C         -3.68788        1.77138        0.30702
H         -4.52557        1.45335        0.94796
H         -3.02664        2.41413        0.90023
H         -4.10974        2.37083       -0.51165
C         -3.88395       -0.34728       -1.03698
H         -3.35681       -1.19902       -1.48651
H         -4.68654       -0.74685       -0.39721
H         -4.36395        0.22305       -1.84624
