80
Cat410.ts34.5.log	Energy: -1251656.4772616
C          1.24496       -3.40313        0.33953
H          0.76418       -4.28742       -0.08871
H          2.30898       -3.32892        0.09119
C          0.84218       -3.02391        1.67461
H          0.01832       -3.55416        2.16145
H          1.63065       -2.75748        2.39098
H          0.69637       -1.46800        1.59179
Ir        -0.00273       -1.67497        0.07707
C          1.84562        1.28611        0.43073
C          3.36763       -0.85219       -0.76611
C          1.26721        0.66337       -2.34905
C         -1.93766        1.11233       -0.71014
C         -3.37186       -0.92958        0.72685
C         -1.38749        0.91266        2.13799
P         -1.67938       -0.13376        0.61966
P          1.62922       -0.14813       -0.70387
C         -1.11622       -2.49918       -1.19177
O         -1.81445       -2.98429       -1.98435
C          1.52858        2.60952        0.10962
H          1.20587        2.87484       -0.89646
C          2.24653        1.00380        1.74698
H          2.47227       -0.03140        2.02117
C          1.58913        3.60605        1.08634
H          1.32086        4.63288        0.82395
C          2.32539        1.98741        2.73174
C          2.76433        1.65087        4.12721
H          2.72787        0.56762        4.30976
H          3.79923        1.98491        4.30884
H          2.12876        2.14480        4.87776
C          1.97842        3.30239        2.38528
H          2.01374        4.08909        3.14398
H          3.38897       -1.43119        0.17517
C          3.49408       -1.84802       -1.91471
H          4.38528       -2.48080       -1.77537
H          2.61350       -2.50375       -1.98282
H          3.60906       -1.33071       -2.87919
C          4.53239        0.12965       -0.72800
H          4.44424        0.84538        0.10160
H          5.47749       -0.42298       -0.59488
H          4.61926        0.70380       -1.66024
H          0.42293        1.32022       -2.07501
C          2.38213        1.51859       -2.94455
H          1.98217        2.12526       -3.77365
H          2.83966        2.20375       -2.21761
H          3.18280        0.89100       -3.36339
C          0.72881       -0.32273       -3.37935
H         -0.06844       -0.94713       -2.95757
H          0.31742        0.23069       -4.23846
H          1.51583       -0.99115       -3.75818
C         -2.37170        0.64925       -1.96228
H         -2.60897       -0.40655       -2.10860
C         -1.61839        2.46684       -0.57620
H         -1.27397        2.85683        0.38172
C         -2.47419        1.52416       -3.03747
H         -2.81398        1.15065       -4.00644
C         -1.69621        3.35621       -1.65640
C         -1.28160        4.78949       -1.48761
H         -1.48235        5.14991       -0.46817
H         -0.19963        4.91104       -1.66849
H         -1.80444        5.44910       -2.19495
C         -2.13131        2.86832       -2.89089
H         -2.20477        3.54653       -3.74547
H         -3.36709       -1.51989       -0.20569
C         -3.42682       -1.92374        1.88029
H         -4.30939       -2.57485        1.77919
H         -2.52835       -2.55976        1.89107
H         -3.50666       -1.41176        2.85196
C         -4.58772       -0.01181        0.68779
H         -4.51006        0.74700       -0.10432
H         -5.49127       -0.61047        0.48758
H         -4.74800        0.50636        1.64263
H         -0.54527        1.54368        1.80311
C         -2.54880        1.81279        2.55255
H         -2.18864        2.57949        3.25762
H         -3.02261        2.32933        1.70694
H         -3.32723        1.23553        3.07292
C         -0.88117        0.11621        3.33442
H         -0.00896       -0.49581        3.07276
H         -0.58074        0.81082        4.13509
H         -1.65368       -0.55173        3.74292
