84
Cat483.ts34.5.log	Energy: -2018160.5739589
C          1.07084       -4.12470       -0.38421
H          1.03740       -4.69698       -1.31477
H          2.06442       -4.07792        0.07105
C         -0.08181       -4.18982        0.47261
H         -0.98143       -4.70861        0.13143
H          0.07786       -4.28197        1.55317
H         -0.35665       -2.68172        0.90909
Ir         0.06690       -2.22686       -0.65072
O          2.15953       -0.66947        1.63248
O          3.29348       -1.50556       -0.40094
O          1.76453        0.58373       -0.56042
O         -2.07554       -0.06670       -1.98787
O         -3.04454       -1.34178        0.01666
O         -1.39517        0.53465        0.40559
P         -1.62058       -0.76504       -0.57313
P          1.80690       -0.96408        0.02282
C         -0.05278       -2.42179       -2.55008
O         -0.12618       -2.51840       -3.69264
C          1.18044       -0.43912        2.56377
C          0.82728       -1.46829        3.43667
H          1.31771       -2.43838        3.33418
C          0.57324        0.81267        2.66115
H          0.83923        1.59984        1.95428
C         -0.12535       -1.23472        4.42681
H         -0.39511       -2.03788        5.11674
C         -0.37932        1.03611        3.65189
H         -0.85758        2.01572        3.72240
C         -0.72721        0.01880        4.54019
H         -1.46743        0.20290        5.32216
C          4.53134       -0.97834       -0.10424
C          5.06166       -1.06938        1.18122
H          4.47840       -1.54430        1.96919
C          5.26302       -0.38913       -1.13417
H          4.82883       -0.34305       -2.13365
C          6.31636       -0.52616        1.44678
H          6.75491       -0.57304        2.44513
C          6.51561        0.15430       -0.87218
H          7.10222        0.63657       -1.65576
C          7.02388        0.08664        0.42028
F          8.21974        0.61489        0.67804
C          2.74994        1.54072       -0.59724
C          3.00001        2.13752       -1.83270
H          2.42930        1.80573       -2.70217
C          3.45781        1.94256        0.53729
H          3.26386        1.46790        1.49801
C          3.97838        3.12088       -1.94752
H          4.19717        3.59838       -2.90425
C          4.44443        2.91684        0.42175
H          5.02735        3.23392        1.28801
C          4.69636        3.49276       -0.81767
F          5.64342        4.42343       -0.92426
C         -3.36392        0.18058       -2.40322
C         -3.85936        1.48270       -2.38333
H         -3.22679        2.29404       -2.02282
C         -4.14324       -0.87626       -2.87270
H         -3.72263       -1.88308       -2.88626
C         -5.16180        1.72042       -2.81864
H         -5.55389        2.73987       -2.79973
C         -5.44459       -0.62632       -3.30158
H         -6.05955       -1.45339       -3.66379
C         -5.96022        0.67021       -3.27073
H         -6.98151        0.86221       -3.60674
C         -3.85689       -0.73447        0.94393
C         -5.08442       -0.20670        0.54715
H         -5.37945       -0.25680       -0.50160
C         -3.45765       -0.68308        2.27960
H         -2.48676       -1.08728        2.57015
C         -5.91654        0.38725        1.49330
H         -6.88184        0.81076        1.21096
C         -4.28542       -0.08527        3.22516
H         -3.99309       -0.02325        4.27464
C         -5.50586        0.44432        2.81993
F         -6.29901        1.01774        3.72469
C         -1.64170        1.85966        0.16227
C         -2.66392        2.50494        0.85735
H         -3.27997        1.93773        1.55533
C         -0.83410        2.56257       -0.73227
H         -0.03219        2.03454       -1.24791
C         -2.89212        3.86184        0.64273
H         -3.68741        4.39240        1.16908
C         -1.06397        3.91797       -0.95108
H         -0.44804        4.49207       -1.64538
C         -2.09318        4.55095       -0.26266
F         -2.31462        5.84819       -0.47030
