84
Cat418.ts34.5.log	Energy: -2688657.1736110
C         -0.81219        0.39037       -3.51264
H         -0.61708       -0.37621       -4.26797
H         -1.85536        0.72155       -3.47764
C          0.21469        1.37852       -3.30249
H          1.17857        1.28092       -3.81102
H         -0.09491        2.42678       -3.20829
H          0.31218        1.50772       -1.74130
Ir         0.09965       -0.15929       -1.64389
C         -1.52463        1.65749        0.93619
C         -3.35069        0.58632       -1.01601
C         -2.24813       -1.14138        0.85672
C          1.81173       -1.72398        1.00325
C          3.52733       -0.44326       -0.88692
C          2.12184        1.14514        1.00613
P          1.85844       -0.28135       -0.12385
P         -1.72061        0.25212       -0.22616
C          0.34429       -1.96693       -2.12902
O          0.49214       -3.07914       -2.41200
C         -1.26270        1.48993        2.29837
H         -1.27875        0.49327        2.74267
C         -1.49029        2.95343        0.39839
H         -1.65419        3.09153       -0.67534
C         -0.97827        2.59786        3.09714
H         -0.75173        2.45599        4.15652
C         -1.23828        4.07299        1.19152
C         -1.23138        5.45386        0.60347
H         -1.18511        5.42650       -0.49444
H         -2.14202        6.00863        0.88319
H         -0.37496        6.04038        0.97051
C         -0.97527        3.87694        2.55486
H         -0.73599        4.73507        3.18847
C         -3.74379       -0.29902       -2.02961
H         -3.06248       -1.09997       -2.33131
C         -4.22984        1.60621       -0.63787
H         -3.95526        2.30126        0.15832
C         -4.98042       -0.17468       -2.65162
H         -5.28502       -0.86743       -3.43768
C         -5.46797        1.74905       -1.26127
H         -6.15282        2.54611       -0.96698
C         -5.83671        0.85717       -2.26570
Cl        -7.37373        1.03058       -3.04398
C         -3.26995       -0.97914        1.80446
H         -3.75520       -0.00723        1.92514
C         -1.67622       -2.40303        0.69339
H         -0.88735       -2.53688       -0.04814
C         -3.67795       -2.04189        2.60144
H         -4.46181       -1.91569        3.34990
C         -2.08674       -3.48312        1.47137
H         -1.62395       -4.46328        1.34925
C         -3.07215       -3.28917        2.43290
Cl        -3.54131       -4.60891        3.45369
C          2.45365       -2.91683        0.65800
H          3.07636       -2.96886       -0.23760
C          1.00260       -1.68813        2.14522
H          0.47199       -0.76729        2.39699
C          2.28597       -4.04570        1.45900
H          2.78203       -4.97980        1.18477
C          0.83773       -2.80691        2.96375
C         -0.02748       -2.74368        4.18811
H         -0.68301       -1.86148        4.16872
H         -0.66902       -3.63327        4.27342
H          0.58354       -2.68963        5.10431
C          1.49216       -3.99132        2.60129
H          1.36788       -4.88475        3.21959
C          3.64060       -0.61759       -2.26732
H          2.72335       -0.64597       -2.86409
C          4.69241       -0.40387       -0.10944
H          4.62783       -0.26298        0.97189
C          4.88889       -0.75745       -2.87079
H          4.97859       -0.89716       -3.94922
C          5.94410       -0.54004       -0.69690
H          6.85376       -0.50924       -0.09510
C          6.03390       -0.71715       -2.07947
Cl         7.59120       -0.88599       -2.81536
C          2.61747        1.01373        2.30972
H          2.83940        0.02516        2.71662
C          1.85935        2.42885        0.51850
H          1.46360        2.54646       -0.49233
C          2.81106        2.13106        3.11781
H          3.17490        2.02470        4.14098
C          2.06753        3.55415        1.30533
H          1.85156        4.55173        0.92151
C          2.52379        3.39617        2.61141
Cl         2.69575        4.78963        3.62548
