94
Cat444.ts34.5.log	Energy: -1773322.5532305
C         -1.49244       -0.83316       -2.92381
H         -1.22027       -1.70840       -3.52087
H         -2.55657       -0.77809       -2.67247
C         -0.79414        0.39204       -3.19748
H          0.02083        0.39894       -3.92688
H         -1.37731        1.32193       -3.19891
H         -0.35245        0.95899       -1.76255
Ir        -0.08119       -0.62385       -1.29737
C         -2.88009        1.26715       -0.42198
C         -3.04425       -1.51146        0.46929
C         -1.57691        0.24448        1.96756
C          2.19251       -0.25837        1.45992
C          3.44736       -0.72448       -1.06038
C          2.47014        1.79219       -0.61580
P          1.92124        0.04795       -0.33567
P         -1.84402       -0.13042        0.18603
C          0.46878       -2.42589       -1.35009
O          0.77943       -3.54019       -1.41894
C         -2.32262        2.56414       -0.37072
O         -1.09841        2.64619        0.17724
C         -0.42123        3.87179        0.19215
H          0.59677        3.65176        0.53009
H         -0.36274        4.31616       -0.81473
H         -0.90378        4.59140        0.87765
C         -4.10450        1.11460       -1.10611
O         -4.54392       -0.14250       -1.28496
C         -5.81521       -0.38695       -1.81291
H         -5.95706       -1.47435       -1.77115
H         -5.89670       -0.05173       -2.86177
H         -6.60480        0.10142       -1.21628
C         -4.80026        2.22604       -1.60180
H         -5.75713        2.09794       -2.10611
C         -3.00985        3.67802       -0.86805
H         -2.58071        4.67606       -0.79277
C         -4.25158        3.49505       -1.46606
H         -4.79589        4.36033       -1.85161
C         -2.90731       -2.70817       -0.23259
C         -4.07536       -1.38579        1.40919
C         -4.83300       -3.62358        0.90518
C         -4.96755       -2.43132        1.62072
C         -3.79847       -3.76054       -0.01686
H         -2.09396       -2.80608       -0.95398
H         -3.67678       -4.69405       -0.57205
H         -5.52986       -4.44798        1.07689
H         -5.77014       -2.32015        2.35444
H         -4.18084       -0.45944        1.97940
C         -2.12292        1.33105        2.65623
C         -0.87490       -0.73295        2.68377
C         -1.28417        0.44991        4.74826
C         -0.73805       -0.63668        4.06473
C         -1.97161        1.43439        4.03937
H         -2.69521        2.08833        2.11736
H         -2.41054        2.28481        4.56814
H         -1.17685        0.52712        5.83315
H         -0.19255       -1.41193        4.60657
H         -0.44700       -1.58414        2.14639
C          2.02945        0.68709        2.48968
O          1.54140        1.89283        2.14953
C          1.37683        2.86375        3.14703
H          0.98025        3.75687        2.65101
H          0.65607        2.53285        3.91208
H          2.33645        3.12265        3.62698
C          2.50330       -1.58488        1.83303
O          2.46733       -2.47932        0.83676
C          2.90192       -3.79601        1.03402
H          2.77491       -4.30128        0.06964
H          2.29106       -4.31504        1.79215
H          3.96319       -3.82630        1.33410
C          2.81567       -1.92091        3.15423
H          3.08856       -2.94129        3.41997
C          2.36172        0.36293        3.81356
H          2.26636        1.10361        4.60503
C          2.76477       -0.92794        4.12650
H          3.01557       -1.17453        5.16101
C          3.38772       -1.22370       -2.36166
C          4.67035       -0.74570       -0.37922
C          5.74108       -1.76838       -2.28929
C          5.80747       -1.26909       -0.98726
C          4.52923       -1.74143       -2.97439
H          2.42431       -1.21189       -2.88007
H          4.46543       -2.13285       -3.99276
H          6.63459       -2.17921       -2.76589
H          6.75387       -1.28804       -0.44062
H          4.73330       -0.36696        0.64392
C          1.96862        2.48509       -1.71842
C          3.47918        2.39071        0.15003
C          3.42204        4.35747       -1.25445
C          3.94210        3.66574       -0.15868
C          2.44158        3.75791       -2.03959
H          1.19643        2.01722       -2.33064
H          2.03608        4.28157       -2.90900
H          3.79034        5.35692       -1.49871
H          4.72192        4.12132        0.45682
H          3.90722        1.85783        1.00115
