96
Cat421.ts34.5.log	Energy: -1633975.5354799
C         -1.10463        0.00579       -3.37468
H         -0.73185       -0.70293       -4.11977
H         -2.19713        0.05342       -3.31661
C         -0.36662        1.23338       -3.21202
H          0.57897        1.37707       -3.74391
H         -0.93809        2.16685       -3.13239
H         -0.27341        1.42666       -1.66194
Ir        -0.03664       -0.23564       -1.52437
C         -2.02110        1.24240        1.00417
C         -3.53948       -0.44763       -0.77193
C         -1.94760       -1.65020        1.14875
C          2.24707       -1.18789        0.98618
C          3.33824        0.57092       -0.98143
C          1.65159        1.63773        1.02849
P          1.75655        0.19645       -0.10915
P         -1.85516       -0.24989       -0.04595
C          0.65028       -1.94223       -1.93890
O          1.07049       -2.99834       -2.16323
C         -1.59128        1.28300        2.33406
H         -1.22332        0.37775        2.82057
C         -2.46841        2.42781        0.40407
H         -2.77042        2.41349       -0.64815
C         -1.63461        2.48090        3.04452
H         -1.27971        2.50853        4.07728
C         -2.55361        3.62652        1.11499
C         -3.11719        4.85964        0.46940
H         -2.90732        4.88247       -0.61016
H         -4.21309        4.89890        0.58739
H         -2.70791        5.77619        0.91802
C         -2.12551        3.63814        2.44864
H         -2.16586        4.56971        3.01996
C         -3.67777       -1.42326       -1.76562
H         -2.79304       -1.96884       -2.10545
C         -4.67497        0.24228       -0.33374
H         -4.58316        0.99267        0.45536
C         -4.93209       -1.69467       -2.30572
H         -5.03572       -2.46163       -3.07729
C         -5.93863       -0.01130       -0.87712
C         -7.14424        0.75423       -0.41220
H         -7.98384        0.08055       -0.18150
H         -6.92325        1.34352        0.48897
H         -7.49492        1.45279       -1.18974
C         -6.05226       -0.99114       -1.87045
H         -7.03258       -1.20669       -2.30515
C         -2.89063       -1.66361        2.18777
H         -3.55176       -0.80759        2.34223
C         -1.13985       -2.76660        0.94785
H         -0.41053       -2.74541        0.13589
C         -2.98776       -2.77538        3.01553
H         -3.71700       -2.78507        3.82955
C         -1.24413       -3.90608        1.75770
C         -0.36383       -5.09166        1.49538
H         -0.48332       -5.45026        0.46127
H          0.69709       -4.82201        1.61899
H         -0.59002       -5.92446        2.17622
C         -2.17164       -3.88913        2.80063
H         -2.26640       -4.76380        3.45047
C          1.49244       -1.46753        2.13325
H          0.64721       -0.83168        2.40102
C          3.29894       -2.03768        0.63784
H          3.88343       -1.83039       -0.26228
C          1.82042       -2.55735        2.93055
H          1.23226       -2.76706        3.82704
C          3.62483       -3.15366        1.41927
C          4.73703       -4.07001        0.99935
H          4.43044       -4.68610        0.13808
H          5.62804       -3.50340        0.68926
H          5.02856       -4.75158        1.81088
C          2.88036       -3.39342        2.57768
H          3.12909       -4.25119        3.20883
C          3.44933        0.30415       -2.34579
H          2.57893       -0.09844       -2.87271
C          4.43891        1.09419       -0.29021
H          4.35255        1.31367        0.77731
C          4.65484        0.55017       -3.00476
H          4.74294        0.33707       -4.07301
C          5.64906        1.34929       -0.93676
C          6.82178        1.91890       -0.19193
H          7.09443        2.91334       -0.58045
H          6.60293        2.02608        0.87957
H          7.71114        1.27729       -0.29466
C          5.74131        1.06682       -2.30797
H          6.68124        1.26030       -2.83331
C          2.19224        1.63703        2.31856
H          2.64401        0.73166        2.72768
C          1.08612        2.81560        0.53002
H          0.64749        2.80940       -0.47127
C          2.15301        2.79962        3.08731
H          2.56570        2.79215        4.09932
C          1.06534        3.99372        1.27760
C          0.50643        5.26103        0.70224
H          1.31625        5.92668        0.35994
H         -0.14377        5.05661       -0.15925
H         -0.08002        5.81670        1.44884
C          1.59919        3.96657        2.57200
H          1.57561        4.87361        3.18276
