110
Cat455.ts34.5.log	Energy: -2060680.9782537
C          0.57986       -2.15294       -2.80716
H          0.25176       -1.91038       -3.82142
H          1.66260       -2.28380       -2.70502
C         -0.28832       -2.98236       -2.01709
H         -1.27727       -3.25801       -2.39437
H          0.16692       -3.77313       -1.41061
H         -0.35265       -2.28197       -0.60550
Ir        -0.36107       -0.80111       -1.40954
C          3.19215       -0.85267       -0.73539
O          1.70755        1.49329       -0.81890
O          1.62631        0.00465        1.30140
C         -1.72114        0.86861        1.44492
O         -3.23323        0.71674       -0.81229
O         -2.93056       -1.39108        0.61082
P         -2.04086       -0.14978       -0.04370
P          1.55225       -0.08285       -0.37354
C         -0.79661        0.53330       -2.68156
O         -1.02107        1.40708       -3.40245
C          3.26729       -2.23451       -0.46449
O          2.19060       -2.75378        0.15594
C          2.20249       -4.08695        0.58400
H          3.00559       -4.26330        1.31972
H          1.23151       -4.26487        1.06342
H          2.31800       -4.78663       -0.26136
C          4.32470       -0.23364       -1.29859
O          4.29078        1.10367       -1.43027
C          5.42912        1.79560       -1.86536
H          5.17282        2.86141       -1.81493
H          5.69580        1.53419       -2.90371
H          6.29560        1.60120       -1.21039
C          5.45309       -0.98789       -1.64884
H          6.32233       -0.50871       -2.09643
C          4.39442       -2.99118       -0.79483
H          4.43866       -4.05709       -0.57709
C          5.47186       -2.35422       -1.39888
H          6.35712       -2.93531       -1.66756
C          2.21076        2.65884       -0.35098
C          2.32449        2.96521        1.00478
H          2.02482        2.23118        1.74968
C          2.50416        3.61809       -1.34058
C          2.28082        3.27942       -2.78105
H          2.59505        4.10246       -3.43769
H          2.82640        2.36484       -3.05649
H          1.21820        3.06082       -2.97396
C          2.77900        4.22716        1.38914
H          2.86731        4.45935        2.45328
C          2.95382        4.87162       -0.92320
H          3.18235        5.62520       -1.68248
C          3.10207        5.18252        0.43032
H          3.45587        6.17136        0.73023
C          2.66449       -0.38787        2.09989
C          3.93778        0.16908        1.98208
H          4.12054        0.93971        1.23227
C          2.38647       -1.36936        3.06477
C          0.99753       -1.90947        3.18002
H          0.33082       -1.15992        3.63214
H          0.58208       -2.12277        2.18574
H          0.96701       -2.81933        3.79575
C          4.96246       -0.26600        2.82026
H          5.96002        0.16795        2.72046
C          3.43101       -1.78599        3.89314
H          3.23017       -2.55265        4.64704
C          4.71288       -1.24850        3.77459
H          5.51390       -1.59579        4.43112
C         -1.78313        0.45855        2.79269
O         -2.22159       -0.78642        3.05525
C         -2.47773       -1.16371        4.37758
H         -2.91049       -2.17100        4.33306
H         -1.55705       -1.20297        4.98581
H         -3.19811       -0.48344        4.86337
C         -1.27613        2.18252        1.17240
O         -1.23621        2.52566       -0.12340
C         -0.97420        3.85643       -0.49187
H         -0.97779        3.87328       -1.58799
H          0.01083        4.19448       -0.13554
H         -1.76272        4.52881       -0.11317
C         -0.91456        3.06065        2.19833
H         -0.57328        4.06860        1.97090
C         -1.40579        1.33394        3.81973
H         -1.44985        1.01599        4.85996
C         -0.97690        2.61899        3.51190
H         -0.68651        3.29420        4.32027
C         -4.17352        1.51108       -0.21527
C         -4.74360        1.19533        1.01883
H         -4.44943        0.27641        1.52735
C         -4.55949        2.65888       -0.92748
C         -3.98752        2.92958       -2.28402
H         -2.90374        2.75974       -2.30572
H         -4.41408        2.24116       -3.03206
H         -4.20409        3.95725       -2.60749
C         -5.68752        2.05274        1.58016
H         -6.12785        1.80680        2.54935
C         -5.50849        3.49812       -0.33775
H         -5.81503        4.39959       -0.87591
C         -6.06662        3.21113        0.90745
H         -6.80332        3.88833        1.34549
C         -3.21562       -2.51081       -0.12477
C         -3.87103       -2.41169       -1.35274
H         -4.14559       -1.42452       -1.72644
C         -2.82553       -3.75327        0.39615
C         -2.12423       -3.83735        1.71591
H         -1.40736       -3.01492        1.83733
H         -2.84283       -3.74687        2.54707
H         -1.60434       -4.79971        1.82640
C         -4.14835       -3.56428       -2.08285
H         -4.65775       -3.48353       -3.04582
C         -3.12024       -4.89471       -0.35694
H         -2.81997       -5.87171        0.03248
C         -3.77130       -4.81084       -1.58579
H         -3.98259       -5.71872       -2.15527
