104
Cat409.ts34.5.log	Energy: -1448864.2903642
C          0.43584        3.07638        1.31686
H          0.59471        4.00262        0.75701
H         -0.40570        3.13438        2.01636
C          1.61747        2.36524        1.75354
H          2.60283        2.70193        1.41796
H          1.64592        2.00242        2.78914
H          1.26328        0.86830        1.47707
Ir         0.56739        1.36592        0.02605
C         -1.23940       -1.28268        1.52649
C         -2.55710        1.24926        1.75149
C         -2.54138       -0.12895       -0.78010
C          0.45590       -1.33600       -2.22106
C          3.01450       -0.12016       -2.06202
C          2.06043       -1.85748        0.09245
P          1.53870       -0.47487       -1.00728
P         -1.43362        0.30677        0.62553
C          0.51981        2.35750       -1.57601
O          0.48086        2.94579       -2.57607
C         -1.55662       -2.52966        0.97613
H         -2.02468       -2.59981       -0.00636
C         -0.61664       -1.24670        2.78343
H         -0.32758       -0.27896        3.20604
C         -1.24849       -3.70083        1.67082
H         -1.49106       -4.67057        1.22783
C         -0.31972       -2.40664        3.49908
C          0.32160       -2.33689        4.85445
H          1.12935       -3.07720        4.95674
H          0.74581       -1.34162        5.04839
H         -0.41242       -2.54624        5.64992
C         -0.63839       -3.64415        2.91908
H         -0.39953       -4.56828        3.45271
H         -3.38629        0.60162        2.08054
H         -1.96558        1.48852        2.65099
C         -3.07007        2.53058        1.10715
H         -2.23154        3.04207        0.60408
H         -3.78978        2.28078        0.30843
C         -3.73092        3.47895        2.09722
H         -3.00419        3.74002        2.88859
H         -4.55994        2.95981        2.61245
C         -4.25328        4.75618        1.45464
H         -3.42042        5.26317        0.93637
H         -4.97834        4.49253        0.66418
C         -4.89963        5.71147        2.44465
H         -5.26633        6.62381        1.95020
H         -4.18554        6.02075        3.22496
H         -5.75689        5.24117        2.95314
H         -2.57301        0.77460       -1.40988
H         -1.98461       -0.86510       -1.38074
C         -3.94551       -0.63182       -0.46994
H         -3.91753       -1.38239        0.33814
H         -4.56445        0.19589       -0.08395
C         -4.61978       -1.23955       -1.69302
H         -3.99766       -2.07299       -2.06891
H         -4.63388       -0.49567       -2.51032
C         -6.03360       -1.73821       -1.43273
H         -6.01147       -2.47083       -0.60628
H         -6.65320       -0.89927       -1.06914
C         -6.68567       -2.36443       -2.65485
H         -7.70552       -2.71720       -2.43861
H         -6.10493       -3.22814       -3.01772
H         -6.75203       -1.64324       -3.48541
C         -0.04702       -0.59075       -3.29784
H          0.25076        0.45101       -3.43547
C          0.01731       -2.65365       -2.05577
H          0.38833       -3.25532       -1.22495
C         -0.97067       -1.15627       -4.16991
H         -1.36343       -0.56374       -4.99964
C         -0.93045       -3.22847       -2.91274
C         -1.39371       -4.64074       -2.69880
H         -1.27720       -4.94674       -1.64872
H         -2.45077       -4.76418       -2.97734
H         -0.81012       -5.34741       -3.31211
C         -1.42156       -2.46086       -3.97257
H         -2.16922       -2.88686       -4.64741
H          3.43661       -1.07620       -2.41683
H          2.60934        0.39633       -2.94862
C          4.06438        0.76091       -1.40275
H          3.54741        1.61379       -0.92783
H          4.56139        0.21314       -0.58429
C          5.11646        1.26809       -2.37846
H          4.61678        1.83377       -3.18587
H          5.61046        0.41187       -2.87380
C          6.17070        2.14936       -1.72317
H          5.66948        2.99835       -1.22577
H          6.66556        1.58116       -0.91529
C          7.21558        2.66948       -2.69700
H          7.96240        3.30236       -2.19388
H          6.75210        3.27228       -3.49452
H          7.75540        1.84134       -3.18426
H          1.12671       -2.30745        0.46664
H          2.56296       -2.61554       -0.53289
C          2.92167       -1.48631        1.28864
H          3.86972       -1.02701        0.96337
H          2.39632       -0.71443        1.87512
C          3.21590       -2.68486        2.17950
H          3.78362       -3.44162        1.60758
H          2.26131       -3.16861        2.45341
C          3.98285       -2.32546        3.44386
H          4.92297       -1.81570        3.16802
H          3.39985       -1.58299        4.01723
C          4.29205       -3.52526        4.32428
H          4.83635       -3.23451        5.23555
H          4.90917       -4.26501        3.78941
H          3.36887       -4.03937        4.63832
