114
Cat438.ts34.5.log	Energy: -1686822.0100258
C         -0.51681       -0.72590       -3.15788
H         -1.09207       -0.10107       -3.84709
H          0.49697       -0.95046       -3.50454
C         -1.23504       -1.75230       -2.44982
H         -2.32072       -1.82515       -2.56135
H         -0.75187       -2.73150       -2.34289
H         -0.75680       -1.61969       -0.91430
Ir        -0.73169        0.04592       -1.15626
C          2.25996       -1.76733       -1.37216
C          2.54550        1.18597       -1.52322
C          2.21344       -0.08768        0.99383
C         -0.69812        1.12457        2.23467
C         -3.35052        1.07218        1.16110
C         -2.09014       -1.42529        1.66594
P         -1.70033        0.23284        0.94977
P          1.56861       -0.17378       -0.73259
C         -1.25569        1.76059       -1.70529
O         -1.55640        2.82915       -2.05474
C          1.99786       -2.95004       -0.64320
O          1.36375       -2.79138        0.53930
C          1.01886       -3.91172        1.30005
H          0.49277       -3.53296        2.18558
H          0.34277       -4.58894        0.74966
H          1.90836       -4.47954        1.62487
C          2.86253       -1.92579       -2.63808
O          3.05312       -0.80424       -3.36513
C          3.59103       -0.88768       -4.65278
H          3.62446        0.13851       -5.04100
H          2.96195       -1.50154       -5.32071
H          4.61540       -1.29960       -4.64635
C          3.23138       -3.18702       -3.12497
H          3.70603       -3.28695       -4.09982
C          2.36244       -4.21331       -1.12151
H          2.16210       -5.10999       -0.53705
C          2.98379       -4.31838       -2.35986
H          3.27192       -5.30145       -2.73900
H          3.62058        0.94710       -1.52856
H          2.21804        1.21524       -2.56992
C          2.28004        2.53531       -0.87048
H          1.19010        2.66835       -0.75579
H          2.70285        2.56638        0.14862
C          2.85919        3.68674       -1.68184
H          2.45767        3.64225       -2.71020
H          3.95225        3.55162       -1.78054
C          2.57263        5.06101       -1.09417
H          1.47966        5.21265       -1.06456
H          2.91036        5.08499       -0.04227
C          3.22037        6.19810       -1.86772
H          2.98574        7.17908       -1.42682
H          2.87601        6.21328       -2.91433
H          4.31745        6.09492       -1.88538
H          1.94691        0.92298        1.34053
H          1.61016       -0.78318        1.58845
C          3.69595       -0.35216        1.19164
H          3.96077       -1.33210        0.75807
H          4.29189        0.39348        0.63655
C          4.09994       -0.32167        2.65944
H          3.52405       -1.09303        3.20433
H          3.79384        0.64325        3.10309
C          5.58612       -0.54509        2.89744
H          5.88523       -1.50574        2.44181
H          6.15817        0.23001        2.35730
C          5.97049       -0.53264        4.36819
H          7.04995       -0.69332        4.51122
H          5.44098       -1.32250        4.92583
H          5.71230        0.42954        4.83970
C         -0.00713        0.54220        3.31534
O         -0.14002       -0.79205        3.49162
C          0.48213       -1.41391        4.57860
H          0.19240       -2.47238        4.53874
H          1.58210       -1.34303        4.51982
H          0.14721       -0.99161        5.54177
C         -0.49591        2.50656        2.01532
O         -1.14919        3.03173        0.96432
C         -1.02682        4.39614        0.66409
H         -1.58845        4.55210       -0.26391
H          0.02454        4.67794        0.49228
H         -1.44386        5.02438        1.47009
C          0.33521        3.27480        2.83895
H          0.47476        4.33822        2.65169
C          0.81922        1.30567        4.15073
H          1.34960        0.84190        4.98057
C          0.98442        2.66194        3.90265
H          1.63540        3.25269        4.55131
H         -3.85092        0.56438        2.00407
H         -3.16075        2.10556        1.47824
C         -4.23261        1.07116       -0.07745
H         -3.73393        1.64925       -0.87056
H         -4.32602        0.05044       -0.48340
C         -5.61672        1.64647        0.18717
H         -5.51647        2.66719        0.60063
H         -6.12085        1.05580        0.97490
C         -6.49890        1.68952       -1.05281
H         -5.98926        2.27845       -1.83543
H         -6.59152        0.66865       -1.46412
C         -7.88176        2.26541       -0.79435
H         -8.49428        2.28289       -1.70880
H         -7.81949        3.29894       -0.41659
H         -8.42687        1.67440       -0.04034
H         -1.14708       -1.98634        1.64638
H         -2.38471       -1.31485        2.72020
C         -3.15825       -2.16910        0.87667
H         -4.14233       -1.69316        1.02679
H         -2.94017       -2.08901       -0.20115
C         -3.25092       -3.63840        1.26405
H         -3.44273       -3.72606        2.34959
H         -2.26870       -4.11724        1.09497
C         -4.32016       -4.40272        0.49663
H         -5.30048       -3.92455        0.66999
H         -4.12684       -4.29930       -0.58577
C         -4.39579       -5.87519        0.86623
H         -5.17680       -6.39994        0.29525
H         -4.62121       -6.00770        1.93691
H         -3.43965       -6.38621        0.66727
