80
Cat430.ts34.5.log	Energy: -1251665.6883476
C          1.18744       -3.31118        0.84498
H          1.07096       -4.20681        0.22785
H          2.22476       -3.12704        1.14655
C          0.15481       -3.05641        1.82675
H         -0.74016       -3.68554        1.83903
H          0.46934       -2.78187        2.84188
H         -0.08535       -1.51888        1.71964
Ir         0.05131       -1.67545        0.04449
C          1.49634        1.34509        1.19660
C          3.44572       -0.60844        0.42979
C          1.95645        0.79500       -1.60977
C         -1.60923        1.05618       -1.41919
C         -3.37254       -1.02836       -0.57935
C         -2.12364        0.67821        1.41740
P         -1.76429       -0.24341       -0.13340
P          1.73364       -0.04395        0.01595
C         -0.30190       -2.46293       -1.63028
O         -0.53291       -2.89899       -2.68099
C          1.22567        2.65992        0.80494
H          1.24639        2.93946       -0.24836
C          1.43963        1.03240        2.56414
H          1.61084       -0.00185        2.87957
C          0.89249        3.62347        1.75939
H          0.67029        4.64492        1.43902
C          1.12175        1.98474        3.53164
C          1.06309        1.62444        4.98773
H          0.08984        1.89566        5.42619
H          1.21615        0.54731        5.14254
H          1.83638        2.15994        5.56181
C          0.83854        3.29301        3.10834
H          0.57108        4.05383        3.84701
H          4.11399        0.26352        0.52461
H          3.38420       -1.06960        1.43021
C          3.98597       -1.61667       -0.57765
H          4.16623       -1.11164       -1.54153
H          3.20907       -2.37272       -0.77872
C          5.26659       -2.29010       -0.10999
H          6.06275       -1.55332        0.08407
H          5.10147       -2.85091        0.82425
H          5.64465       -3.00064       -0.86074
H          1.95354       -0.02067       -2.35094
H          1.01530        1.33813       -1.79332
C          3.16381        1.70487       -1.80686
H          4.08585        1.10072       -1.81345
H          3.26921        2.39353       -0.95261
C          3.06866        2.50385       -3.09857
H          2.98384        1.83841       -3.97247
H          2.17605        3.15071       -3.09834
H          3.95167        3.14403       -3.24774
C         -1.53081        0.65775       -2.76140
H         -1.63163       -0.39591       -3.03204
C         -1.42911        2.40746       -1.10713
H         -1.47238        2.73838       -0.06845
C         -1.27985        1.59838       -3.75490
H         -1.21995        1.27982       -4.79835
C         -1.15290        3.36123       -2.09452
C         -0.89344        4.79196       -1.71981
H         -1.36587        5.04971       -0.76106
H          0.18890        4.98034       -1.61338
H         -1.26788        5.48667       -2.48576
C         -1.08519        2.93939       -3.42581
H         -0.87531        3.66827       -4.21359
H         -4.14800       -0.24897       -0.66862
H         -3.22924       -1.45643       -1.58539
C         -3.78172       -2.12446        0.39390
H         -3.94489       -1.69055        1.39615
H         -2.93343       -2.82239        0.49941
C         -5.02998       -2.87112       -0.04887
H         -5.89338       -2.19340       -0.14700
H         -4.87565       -3.35322       -1.02731
H         -5.30380       -3.65796        0.67051
H         -2.08193       -0.08220        2.21408
H         -1.24126        1.31635        1.59412
C         -3.41852        1.47602        1.50183
H         -4.27746        0.78450        1.50315
H         -3.54158        2.10143        0.60228
C         -3.46450        2.35244        2.74495
H         -3.36997        1.74822        3.66151
H         -2.63496        3.07811        2.74690
H         -4.40780        2.91571        2.81073
