96
Cat474.ts34.5.log	Energy: -1867704.0805207
C         -0.53665       -3.66340       -0.01056
H         -0.20723       -4.30331        0.81266
H         -1.60843       -3.72878       -0.22528
C          0.37266       -3.49394       -1.11387
H          1.37936       -3.91919       -1.06285
H         -0.04276       -3.52451       -2.12782
H          0.37738       -1.93218       -1.43015
Ir         0.26955       -1.67622        0.23403
O         -1.89218        0.32353       -1.44842
C         -3.21881       -1.61960       -0.12500
C         -2.19029        0.64594        1.26391
O          2.22092        0.75296        1.43437
C          3.38925       -0.45487       -0.74031
C          1.32467        1.48682       -0.98163
P          1.78450        0.01407       -0.01916
P         -1.73180       -0.56964       -0.01245
C          0.78897       -1.97821        2.02821
O          1.08291       -2.13520        3.13631
C         -2.69975        1.41058       -1.60644
C         -2.28010        2.65899       -1.13891
H         -1.32519        2.73340       -0.61842
C         -3.92462        1.28888       -2.26620
H         -4.24428        0.30877       -2.62183
C         -3.08310        3.77761       -1.33332
H         -2.74742        4.74878       -0.96049
C         -4.72288        2.41648       -2.45661
H         -5.67959        2.31584       -2.97530
C         -4.30859        3.66329       -1.99083
H         -4.93797        4.54331       -2.14191
C         -3.85867       -2.10218        1.02761
H         -3.54312       -1.74702        2.01208
C         -3.62323       -2.11931       -1.36446
H         -3.11376       -1.77747       -2.26894
C         -4.88729       -3.02606        0.93578
H         -5.39511       -3.40146        1.82623
C         -4.65897       -3.04799       -1.47183
H         -4.95105       -3.40953       -2.45812
C         -5.30191       -3.50466       -0.31607
O         -6.31211       -4.39668       -0.30808
C         -6.75928       -4.92004       -1.52630
H         -5.96138       -5.47115       -2.05507
H         -7.57383       -5.61657       -1.29039
H         -7.14749       -4.13150       -2.19538
C         -1.19151        1.18927        2.08616
H         -0.16797        0.81413        2.01002
C         -3.49586        1.13467        1.38972
H         -4.29100        0.73270        0.75770
C         -1.48602        2.19595        2.99139
H         -0.71442        2.62293        3.63452
C         -3.80669        2.14114        2.29910
H         -4.83365        2.50039        2.36423
C         -2.79567        2.68476        3.10234
O         -2.99097        3.66673        4.00142
C         -4.27672        4.19983        4.15381
H         -5.00156        3.43604        4.48622
H         -4.20508        4.97880        4.92343
H         -4.64601        4.65474        3.21774
C          3.48932        0.80487        1.94421
C          4.43114        1.69870        1.43082
H          4.15902        2.34522        0.59526
C          3.81888       -0.03051        3.01230
H          3.06526       -0.72022        3.39561
C          5.70783        1.74797        1.98534
H          6.44426        2.44420        1.57678
C          5.09692        0.03193        3.56329
H          5.35216       -0.62228        4.40056
C          6.04651        0.91585        3.05156
H          7.04888        0.95735        3.48362
C          4.12519        0.37855       -1.59692
H          3.71380        1.34313       -1.90315
C          3.93518       -1.68766       -0.37429
H          3.35177       -2.34707        0.27592
C          5.36920       -0.01059       -2.06461
H          5.94959        0.62422       -2.73662
C          5.19241       -2.08298       -0.82198
H          5.59249       -3.04699       -0.50768
C          5.91923       -1.24044       -1.67274
O          7.13677       -1.52880       -2.16536
C          7.74848       -2.73471       -1.79907
H          7.16056       -3.60958       -2.12787
H          8.72512       -2.75594       -2.29878
H          7.90343       -2.80035       -0.70794
C          0.85245        1.32112       -2.29371
H          0.73176        0.31526       -2.70284
C          1.42039        2.77679       -0.46106
H          1.76017        2.91572        0.56699
C          0.51586        2.41726       -3.06668
H          0.13550        2.30198       -4.08284
C          1.07140        3.89099       -1.22807
H          1.14636        4.88480       -0.78643
C          0.61820        3.71444       -2.53924
O          0.24175        4.71582       -3.35473
C          0.23981        6.02485       -2.86015
H          1.25150        6.35703       -2.56711
H         -0.12273        6.66782       -3.67205
H         -0.43434        6.13180       -1.99196
