100
Cat424.ts34.5.log	Energy: -1822727.4192372
C          1.46569        0.90308        3.47415
H          1.30488        0.31046        4.37839
H          2.52170        1.01907        3.21074
C          0.57139        2.01311        3.24647
H         -0.28883        2.15435        3.90593
H          1.00219        2.96886        2.92044
H          0.23035        1.91893        1.72621
Ir         0.14026        0.24780        1.90551
C          2.87530        0.99358       -0.39305
O          2.87088       -1.27471        1.09906
O          1.41940       -1.03688       -1.01964
C         -2.77800       -1.03215        0.18115
O         -2.78383        1.50354        1.07498
O         -1.39882        0.85161       -0.99569
P         -1.67756        0.35486        0.56618
P          1.77596       -0.22565        0.39453
C         -0.35299       -1.33001        2.84742
O         -0.58452       -2.31852        3.39598
C          3.65095        0.70254       -1.52387
H          3.57179       -0.27475       -2.00175
C          2.96247        2.25106        0.20058
H          2.32397        2.47453        1.05898
C          4.51354        1.66965       -2.02391
H          5.12700        1.44843       -2.90073
C          3.82948        3.23369       -0.29194
C          3.88662        4.58422        0.35829
H          2.90198        5.07709        0.31672
H          4.16444        4.50590        1.42118
H          4.61585        5.24217       -0.13465
C          4.60718        2.92018       -1.40900
H          5.29499        3.67034       -1.81016
C          4.00773       -1.71892        0.47450
C          3.95800       -2.80790       -0.39450
H          3.00388       -3.30368       -0.58176
C          5.22133       -1.08085        0.72588
H          5.23767       -0.22274        1.40025
C          5.12639       -3.24443       -1.01388
H          5.07865       -4.09650       -1.69783
C          6.38009       -1.53113        0.10181
H          7.32615       -1.01955        0.29981
C          6.35633       -2.61789       -0.78078
C          7.61569       -3.11594       -1.42933
H          7.40793       -3.60230       -2.39355
H          8.12361       -3.85895       -0.79152
H          8.32926       -2.29776       -1.60623
C          0.52290       -2.05493       -1.15455
C          0.21089       -2.94143       -0.12106
H          0.68461       -2.83229        0.85426
C         -0.05837       -2.22634       -2.41074
H          0.21091       -1.53980       -3.21494
C         -0.70164       -3.96758       -0.34921
H         -0.94627       -4.64342        0.47452
C         -0.95077       -3.27111       -2.62556
H         -1.38748       -3.40159       -3.61986
C         -1.29902       -4.15744       -1.59977
C         -2.27928       -5.27043       -1.82505
H         -3.23244       -5.06030       -1.31315
H         -1.90164       -6.22622       -1.43066
H         -2.49580       -5.40718       -2.89424
C         -3.23331       -1.81644        1.24765
H         -2.85666       -1.64745        2.25788
C         -3.27311       -1.24947       -1.10452
H         -2.90969       -0.63004       -1.92556
C         -4.18674       -2.80077        1.01634
H         -4.54901       -3.41184        1.84626
C         -4.23456       -2.23636       -1.34689
C         -4.74495       -2.46176       -2.73894
H         -5.06274       -1.51576       -3.20326
H         -3.95470       -2.88843       -3.37823
H         -5.59840       -3.15408       -2.75166
C         -4.68809       -3.00212       -0.26940
H         -5.44849       -3.76965       -0.44024
C         -4.01741        1.62268        0.47604
C         -4.16432        2.27330       -0.74665
H         -3.29228        2.70102       -1.24277
C         -5.13093        1.07628        1.11408
H         -4.99434        0.56656        2.06903
C         -5.42798        2.36185       -1.32882
H         -5.53458        2.87145       -2.29048
C         -6.38342        1.17227        0.52002
H         -7.24815        0.73234        1.02485
C         -6.55704        1.81225       -0.71460
C         -7.91715        1.91148       -1.34287
H         -7.86087        2.31730       -2.36277
H         -8.58048        2.57000       -0.75851
H         -8.40677        0.92654       -1.39677
C         -0.58493        1.89687       -1.33537
C         -0.59606        3.11161       -0.64743
H         -1.25229        3.24281        0.21411
C          0.24643        1.73529       -2.44373
H          0.25492        0.77326       -2.95525
C          0.22436        4.15216       -1.08185
H          0.20203        5.10270       -0.54108
C          1.05366        2.78442       -2.86365
H          1.70724        2.63946       -3.72772
C          1.05786        4.01551       -2.19522
C          1.92362        5.14349       -2.67349
H          1.82693        6.02848       -2.02890
H          1.65665        5.44535       -3.69887
H          2.98425        4.84689       -2.68760
