106
Cat448.ts34.5.log	Energy: -1871930.9679824
C         -1.30331       -0.46153       -3.19472
H         -1.09000       -1.34298       -3.80646
H         -2.37129       -0.25886       -3.06278
C         -0.41043        0.65764       -3.32049
H          0.47842        0.57169       -3.95205
H         -0.85187        1.66247       -3.33865
H         -0.07392        1.09751       -1.81443
Ir        -0.08207       -0.52532       -1.41194
C         -2.68807        1.70721       -0.73959
C         -3.31487       -1.05650       -0.02611
C         -1.77580        0.40300        1.70464
C          1.82781       -0.51266        1.64246
C          3.31503       -1.19987       -0.68894
C          2.70209        1.44892       -0.34283
P          1.85199       -0.18260       -0.17217
P         -1.92124        0.15353       -0.10900
C          0.21683       -2.38421       -1.48242
O          0.38137       -3.52974       -1.54937
C         -1.96496        2.91008       -0.57855
O         -0.79572        2.80050        0.07487
C          0.04197        3.91529        0.19796
H          0.98302        3.54144        0.61397
H          0.25370        4.37451       -0.78158
H         -0.39550        4.67797        0.86721
C         -3.84949        1.75462       -1.54022
O         -4.43519        0.57966       -1.82563
C         -5.66998        0.53535       -2.47856
H         -5.95808       -0.52319       -2.51003
H         -5.60468        0.92292       -3.51047
H         -6.44204        1.10172       -1.92964
C         -4.33706        2.97040       -2.03934
H         -5.24990        2.99627       -2.63299
C         -2.44275        4.12725       -1.07964
H         -1.88884        5.05089       -0.91851
C         -3.63615        4.14404       -1.79231
H         -4.01823        5.09104       -2.18074
C         -3.28591       -2.21843       -0.79304
H         -2.43338       -2.39656       -1.45132
C         -4.40619       -0.84077        0.82547
H         -4.43989        0.05755        1.44738
C         -4.33301       -3.13818       -0.72724
H         -4.28916       -4.04455       -1.33807
C         -5.44885       -1.75564        0.88380
H         -6.29511       -1.56567        1.55100
C         -5.43265       -2.92432        0.10714
C         -6.54888       -3.92343        0.20179
H         -7.53304       -3.43007        0.20277
H         -6.52429       -4.63688       -0.63421
H         -6.48014       -4.50579        1.13584
C         -2.13979        1.54733        2.41309
H         -2.50513        2.42841        1.88329
C         -1.35155       -0.72407        2.42293
H         -1.06785       -1.62830        1.87661
C         -2.06692        1.56639        3.80750
H         -2.35809        2.47350        4.34606
C         -1.30503       -0.70636        3.80880
H         -0.97524       -1.60021        4.34409
C         -1.65020        0.44527        4.52939
C         -1.54976        0.46477        6.02609
H         -2.11160       -0.36791        6.47780
H         -0.50135        0.35536        6.35109
H         -1.93724        1.40318        6.44783
C          1.72425        0.45307        2.66116
O          1.50446        1.72676        2.28956
C          1.43823        2.71904        3.27581
H          1.28255        3.66955        2.75262
H          0.59151        2.54671        3.96058
H          2.37605        2.78403        3.85413
C          1.85702       -1.87020        2.03148
O          1.76838       -2.75081        1.02591
C          1.97437       -4.11851        1.24509
H          1.86721       -4.59782        0.26509
H          1.22008       -4.53740        1.93296
H          2.98396       -4.31129        1.64630
C          1.96885       -2.24809        3.37340
H          2.03123       -3.29894        3.65299
C          1.84964        0.08317        4.00906
H          1.80613        0.83475        4.79502
C          1.98927       -1.25585        4.34724
H          2.08393       -1.53553        5.39934
C          3.38001       -1.65370       -2.00478
H          2.52964       -1.46229       -2.66592
C          4.39922       -1.45664        0.15988
H          4.37290       -1.12011        1.19931
C          4.49744       -2.35187       -2.46247
H          4.52266       -2.70204       -3.49834
C          5.50650       -2.15947       -0.29846
H          6.33736       -2.35676        0.38583
C          5.57861       -2.62081       -1.62098
C          6.78096       -3.37893       -2.10328
H          6.93693       -4.29787       -1.51552
H          6.67790       -3.66833       -3.15850
H          7.69823       -2.77602       -2.00677
C          3.72023        1.85451        0.53124
H          3.97363        1.23897        1.39678
C          2.43386        2.24807       -1.45189
H          1.65731        1.93862       -2.15262
C          4.41172        3.03904        0.31766
H          5.19336        3.33790        1.02250
C          3.13925        3.43183       -1.67233
H          2.90531        4.03900       -2.55161
C          4.13368        3.85514       -0.78957
C          4.90221        5.12329       -1.01980
H          5.95412        4.90838       -1.26974
H          4.47646        5.70891       -1.84672
H          4.90947        5.75848       -0.12018
