80
Cat473.ts34.5.log	Energy: -1580430.3638479
C         -0.59620       -3.47703       -0.74530
H         -0.14603       -4.25263       -0.11974
H         -1.68511       -3.55032       -0.83322
C          0.15485       -3.04372       -1.89394
H          1.16963       -3.41855       -2.05683
H         -0.39056       -2.88893       -2.83213
H          0.08444       -1.45711       -1.87749
Ir         0.19276       -1.54328       -0.19569
O         -2.19598        0.67476       -1.12771
C         -3.30004       -1.57006       -0.09197
C         -2.14156        0.41932        1.60534
O          2.28507        0.64427        1.21285
C          3.15639       -0.06420       -1.29419
C          1.07300        1.83312       -0.86596
P          1.65426        0.20504       -0.28421
P         -1.83421       -0.48901        0.04673
C          0.92832       -2.18046        1.42877
O          1.35254       -2.54602        2.44031
C         -3.04607        1.72886       -0.94551
C         -2.57676        2.89037       -0.32799
H         -1.54582        2.92082        0.02620
C         -4.36376        1.66052       -1.40207
H         -4.71866        0.74613       -1.87863
C         -3.42804        3.97832       -0.16459
H         -3.05446        4.88212        0.32276
C         -5.20914        2.75662       -1.23394
H         -6.24010        2.69958       -1.59195
C         -4.74769        3.91659       -0.61344
H         -5.41470        4.77155       -0.48162
C         -3.76317       -2.30079        1.00923
C         -3.84634       -1.82311       -1.35642
C         -5.33037       -3.47670       -0.40748
C         -4.86031       -2.76635       -1.51147
C         -4.77523       -3.24472        0.85111
H         -3.32699       -2.13005        1.99687
H         -5.13362       -3.80382        1.71888
H         -6.12465       -4.21701       -0.52867
H         -5.28348       -2.95042       -2.50213
H         -3.46525       -1.27513       -2.22186
C         -3.43303        0.80333        1.99601
C         -1.04701        0.80879        2.38487
C         -2.52326        1.96058        3.90957
C         -1.23763        1.57878        3.53078
C         -3.62107        1.56871        3.14280
H         -4.29597        0.51011        1.39436
H         -4.63057        1.86678        3.43530
H         -2.67270        2.56340        4.80891
H         -0.37441        1.87596        4.13086
H         -0.03975        0.50470        2.09037
C          3.61023        0.61940        1.55891
C          4.48569        1.60951        1.10989
H          4.11610        2.39777        0.45247
C          4.06384       -0.39794        2.39881
H          3.35915       -1.15990        2.73549
C          5.82235        1.57334        1.49988
H          6.50698        2.34635        1.14268
C          5.40165       -0.42056        2.78689
H          5.75545       -1.21763        3.44525
C          6.28578        0.55981        2.33759
H          7.33491        0.53460        2.64032
C          3.75968       -1.32579       -1.22491
C          3.73468        0.93325       -2.08743
C          5.50965       -0.58204       -2.71069
C          4.90350        0.67027       -2.79856
C          4.93812       -1.57934       -1.92058
H          3.28475       -2.10442       -0.62031
H          5.40927       -2.56260       -1.85169
H          6.42962       -0.78363       -3.26491
H          5.34600        1.45090       -3.42198
H          3.26883        1.91911       -2.15140
C          1.27421        2.99810       -0.11923
C          0.41516        1.90773       -2.09963
C          0.22183        4.30344       -1.85995
C          0.00075        3.13903       -2.59700
C          0.84887        4.23026       -0.61802
H          1.75903        2.93273        0.85649
H          1.00691        5.13644       -0.02826
H         -0.11510        5.26742       -2.24806
H         -0.51478        3.18924       -3.55850
H          0.21404        0.99309       -2.66227
