88
Cat423.ts34.5.log	Energy: -1724112.9238244
C          0.56576       -2.73051       -2.60621
H          0.20570       -2.70717       -3.63817
H          1.65330       -2.78794       -2.50474
C         -0.25622       -3.40152       -1.63743
H         -1.24652       -3.76558       -1.92309
H          0.22784       -4.03879       -0.88810
H         -0.27785       -2.41946       -0.39151
Ir        -0.35998       -1.13886       -1.47504
C          1.90608       -0.38329        1.18593
O          2.93985       -1.05444       -1.21920
O          1.85326        1.28815       -0.98908
C         -1.95876        1.57849        0.19939
O         -3.48607       -0.37999       -0.82206
O         -2.10862       -0.76233        1.36595
P         -1.95989       -0.19604       -0.19101
P          1.57112       -0.30195       -0.61323
C         -0.97066       -0.21443       -3.02307
O         -1.33412        0.36712       -3.95022
C          1.42475        0.58473        2.07633
H          0.94000        1.48806        1.70562
C          2.49190       -1.54677        1.69458
H          2.82158       -2.32311        0.99861
C          1.57006        0.39416        3.44737
H          1.20141        1.15532        4.13952
C          2.64471       -1.75028        3.06988
C          3.30093       -2.99830        3.58537
H          2.99356       -3.88046        3.00403
H          4.39903       -2.92756        3.51259
H          3.05334       -3.17857        4.64116
C          2.18026       -0.75839        3.94116
H          2.28565       -0.89772        5.02053
C          4.18233       -0.48815       -1.29578
C          5.17627       -0.84958       -0.38455
H          4.94971       -1.57611        0.39578
C          4.45449        0.43610       -2.30711
H          3.66082        0.70101       -3.00678
C          6.43978       -0.26725       -0.47827
H          7.21577       -0.54966        0.23731
C          5.71722        1.01563       -2.38700
H          5.92345        1.74745       -3.17145
C          6.71284        0.67122       -1.47218
H          7.70149        1.13062       -1.53726
C          2.30624        2.34254       -0.24148
C          3.54431        2.34333        0.40148
H          4.20096        1.47659        0.33277
C          1.46207        3.45049       -0.15447
H          0.49679        3.41298       -0.66151
C          3.92333        3.46003        1.14442
H          4.89165        3.45635        1.65041
C          1.85303        4.55964        0.58982
H          1.18373        5.42094        0.65807
C          3.08437        4.56872        1.24644
H          3.39079        5.43847        1.83190
C         -2.21367        2.47608       -0.84460
H         -2.44182        2.10918       -1.84827
C         -1.66067        2.06025        1.47530
H         -1.48222        1.34742        2.28271
C         -2.18728        3.84386       -0.59133
H         -2.40666        4.54852       -1.39671
C         -1.59065        3.43444        1.72941
C         -1.17497        3.93915        3.07936
H         -1.44360        3.23038        3.87597
H         -0.08031        4.07735        3.11270
H         -1.63549        4.91036        3.31124
C         -1.87552        4.31750        0.68248
H         -1.84697        5.39512        0.86683
C         -4.61604        0.29738       -0.43937
C         -4.95641        0.49720        0.89936
H         -4.30255        0.12058        1.68629
C         -5.44344        0.76672       -1.46005
H         -5.14499        0.59179       -2.49553
C         -6.13192        1.18048        1.20627
H         -6.39737        1.34020        2.25413
C         -6.61753        1.44173       -1.13909
H         -7.26402        1.80818       -1.94019
C         -6.96551        1.65457        0.19506
H         -7.88528        2.18766        0.44523
C         -1.88683       -2.08265        1.66403
C         -0.84301       -2.39948        2.52896
H         -0.22309       -1.59702        2.92991
C         -2.68927       -3.08087        1.11041
H         -3.49393       -2.80460        0.42633
C         -0.60115       -3.73462        2.84489
H          0.22006       -3.98378        3.52131
C         -2.43472       -4.41274        1.43107
H         -3.05825       -5.19805        0.99725
C         -1.39201       -4.74458        2.29653
H         -1.19690       -5.79052        2.54356
