90
Cat439.ts34.5.log	Energy: -1489609.0167195
C          0.94681       -3.29228       -0.09516
H          0.28647       -4.06782       -0.49423
H          1.94626       -3.29763       -0.54266
C          0.84076       -3.01295        1.31851
H          0.05961       -3.50861        1.90318
H          1.77105       -2.90071        1.88900
H          0.85173       -1.46148        1.42175
Ir        -0.08720       -1.42038        0.01707
C          2.86159        0.66481        0.09647
C          2.60440       -1.04450       -2.25359
C          0.84706        1.36957       -1.98876
C         -2.81645        0.79668        0.00404
C         -2.45837       -0.70278        2.51900
C         -0.62101        1.58073        1.88000
P         -1.49146        0.10584        1.11768
P          1.56314       -0.07046       -1.02229
C         -1.39078       -1.94434       -1.22502
O         -2.14792       -2.27380       -2.04318
C          2.95827        2.00699        0.52528
O          2.04999        2.88764        0.04483
C          2.15681        4.24213        0.36760
H          1.37069        4.75899       -0.19750
H          1.99919        4.42477        1.44520
H          3.13407        4.66147        0.07212
C          3.75409       -0.24482        0.71658
O          3.60237       -1.54371        0.38199
C          4.46489       -2.50989        0.91053
H          4.13911       -3.47348        0.49833
H          4.40339       -2.55649        2.01172
H          5.51331       -2.32684        0.61781
C          4.73187        0.16199        1.62896
H          5.41499       -0.56139        2.07088
C          3.93686        2.42435        1.43850
H          3.99906        3.46811        1.74110
C          4.82186        1.50313        1.97686
H          5.58315        1.83162        2.68776
H          2.82184       -1.94645       -1.66829
C          1.77157       -1.48721       -3.45037
H          2.29560       -2.29554       -3.98590
H          0.78912       -1.87130       -3.13766
H          1.61356       -0.67124       -4.17111
C          3.94130       -0.44589       -2.67202
H          4.54284       -0.12660       -1.80918
H          4.52585       -1.20120       -3.22438
H          3.82340        0.42181       -3.33518
H          0.48626        2.00880       -1.17392
C          1.83258        2.16886       -2.83317
H          1.37588        3.12742       -3.13368
H          2.76382        2.39682       -2.29783
H          2.09090        1.63490       -3.75998
C         -0.38399        0.98113       -2.80128
H         -1.10007        0.40809       -2.20038
H         -0.89055        1.89629       -3.14953
H         -0.13917        0.38713       -3.69173
C         -2.76713        2.05133       -0.64318
O         -1.73111        2.86775       -0.34749
C         -1.66139        4.14033       -0.91885
H         -0.77565        4.62336       -0.48788
H         -1.54405        4.09483       -2.01552
H         -2.54907        4.75003       -0.67696
C         -3.86306       -0.07024       -0.39595
O         -3.88486       -1.28306        0.18220
C         -4.76496       -2.27100       -0.27791
H         -4.53245       -3.17741        0.29531
H         -4.60447       -2.47629       -1.34819
H         -5.81866       -1.99463       -0.09968
C         -4.82479        0.30561       -1.34007
H         -5.61566       -0.38543       -1.62600
C         -3.73580        2.43905       -1.57766
H         -3.68119        3.41480       -2.05667
C         -4.75699        1.56405       -1.91769
H         -5.50501        1.86479       -2.65468
H         -2.76050       -1.63587        2.02783
C         -1.56086       -1.08031        3.69113
H         -2.07576       -1.82522        4.31939
H         -0.61223       -1.52406        3.35602
H         -1.33376       -0.21821        4.33494
C         -3.71689        0.01665        2.98932
H         -4.36381        0.31719        2.15440
H         -4.30282       -0.65513        3.63879
H         -3.48594        0.91589        3.57708
H         -0.22454        2.07312        0.98373
C         -1.51652        2.56757        2.61999
H         -0.97789        3.51805        2.77269
H         -2.44275        2.79254        2.07421
H         -1.78919        2.19118        3.61733
C          0.58817        1.19447        2.72642
H          1.20414        0.43380        2.22768
H          1.22161        2.08314        2.87683
H          0.31042        0.82129        3.72064
