78
Cat437.ts34.5.log	Energy: -1391022.2805435
C         -1.86263       -2.32725       -0.93866
H         -1.64054       -3.39820       -0.93092
H         -2.74835       -2.05359       -0.35654
C         -1.60854       -1.61444       -2.16194
H         -1.14335       -2.13573       -3.00335
H         -2.34832       -0.86888       -2.47906
H         -0.80529       -0.28062       -1.72733
Ir        -0.04732       -1.22570       -0.55949
C         -2.82904        0.66782        0.38998
C         -1.29808       -0.56302        2.63305
C         -0.38852        1.84253        1.42244
C          2.68532        0.89401        0.23711
C          3.40607       -1.07440       -1.71319
C          1.68605        1.03248       -2.54870
P          1.91746       -0.11915       -1.11757
P         -1.12821        0.21257        0.95631
C          0.84078       -2.68046        0.22230
O          1.37760       -3.58748        0.71494
C         -2.94889        1.61216       -0.65487
O         -1.80190        2.20579       -1.05232
C         -1.80975        3.07015       -2.15019
H         -0.76758        3.37548       -2.31109
H         -2.17740        2.56940       -3.06266
H         -2.42184        3.97005       -1.96387
C         -4.00755       -0.00554        0.77344
O         -3.88120       -0.95595        1.72377
C         -4.99068       -1.71862        2.10056
H         -4.63305       -2.43607        2.85034
H         -5.41355       -2.27608        1.24668
H         -5.78467       -1.09810        2.55190
C         -5.24521        0.28517        0.18385
H         -6.14632       -0.23729        0.50122
C         -4.17979        1.90762       -1.25076
H         -4.25110        2.64799       -2.04618
C         -5.32079        1.24264       -0.81849
H         -6.28557        1.46916       -1.27794
H         -1.73775       -1.55131        2.45444
C          0.05613       -0.70701        3.31093
H          0.46603        0.25711        3.64779
H          0.78299       -1.16045        2.61901
H         -2.00981       -0.00027        3.25598
H         -0.02432       -1.35781        4.19528
H         -0.09678        2.33038        0.48587
C         -1.24754        2.75721        2.27641
H         -1.53237        2.28531        3.22959
H         -2.17625        3.03693        1.75606
H          0.54782        1.58222        1.93829
H         -0.70570        3.68565        2.52128
C          2.66147        2.29866        0.34463
O          2.09626        2.98798       -0.67186
C          1.98107        4.37856       -0.58852
H          1.48613        4.70534       -1.51268
H          1.36566        4.68800        0.27448
H          2.96580        4.87298       -0.52227
C          3.20250        0.17675        1.34041
O          3.17622       -1.16361        1.23248
C          3.62162       -1.96965        2.29088
H          3.42153       -3.00311        1.98635
H          3.06361       -1.76034        3.21881
H          4.70076       -1.83188        2.47656
C          3.70116        0.82368        2.47725
H          4.09897        0.25055        3.31313
C          3.16452        2.95442        1.47607
H          3.14372        4.04081        1.54310
C          3.67909        2.21089        2.53011
H          4.06696        2.72436        3.41293
H          4.06567       -1.21733       -0.84869
C          3.09501       -2.41719       -2.35260
H          2.37026       -2.33195       -3.17468
H          2.66253       -3.10926       -1.61789
H          3.93592       -0.40690       -2.41393
H          4.01587       -2.87091       -2.75328
H          2.58496        1.65690       -2.65712
C          1.36730        0.30153       -3.84338
H          0.51604       -0.38344       -3.71581
H          2.22189       -0.28802       -4.20719
H          0.86025        1.69712       -2.26705
H          1.10947        1.02329       -4.63432
