104
Cat431.ts34.5.log	Energy: -1448867.2081703
C          0.84090       -3.39437        1.02234
H          0.88524       -4.26369        0.35979
H          1.75940       -3.24588        1.60130
C         -0.41682       -3.14917        1.69487
H         -1.29043       -3.75489        1.43621
H         -0.38874       -2.91788        2.76728
H         -0.59738       -1.59782        1.59010
Ir        -0.00796       -1.70123        0.01217
C          1.13899        1.23399        1.63357
C          3.18805       -0.74940        1.32448
C          2.31227        0.76213       -0.96650
C         -1.12626        1.11538       -1.77110
C         -3.13963       -0.89068       -1.43888
C         -2.35565        0.73811        0.82907
P         -1.65803       -0.18890       -0.59532
P          1.65237       -0.12475        0.50618
C          0.08141       -2.43180       -1.72219
O          0.12843       -2.83665       -2.80916
C          1.00567        2.56705        1.23087
H          1.31682        2.87869        0.23378
C          0.70992        0.88137        2.92272
H          0.77392       -0.16603        3.23489
C          0.43656        3.50753        2.09200
H          0.32182        4.54273        1.75949
C          0.15407        1.81104        3.80140
C         -0.29098        1.40955        5.17776
H          0.38740        1.81347        5.94702
H         -1.29811        1.79413        5.40097
H         -0.31031        0.31661        5.29190
C          0.01124        3.13668        3.36243
H         -0.44216        3.87901        4.02513
H          2.86683       -1.24020        2.25900
H          3.81851        0.10621        1.61291
C          3.93413       -1.74010        0.43936
H          3.20082       -2.41858       -0.02852
H          4.41917       -1.20043       -0.39389
C          4.99292       -2.57204        1.16567
H          4.48060       -3.10921        1.98693
C          5.58258       -3.61509        0.22396
H          4.79880       -4.26363       -0.19700
H          6.31344       -4.25710        0.73991
H          6.10235       -3.13106       -0.61992
C          6.08755       -1.70772        1.78130
H          6.84310       -2.32490        2.29202
H          5.68723       -0.99671        2.51966
H          6.60677       -1.12379        1.00219
H          1.45883        1.32840       -1.37211
H          2.49822       -0.03128       -1.70627
C          3.52982        1.66110       -0.78089
H          3.47440        2.18636        0.18721
H          4.44583        1.04606       -0.73127
C          3.69286        2.70594       -1.88861
H          2.77333        3.32360       -1.88936
C          4.87453        3.62134       -1.59362
H          4.77211        4.10789       -0.61077
H          4.97193        4.41213       -2.35383
H          5.81878        3.05153       -1.58512
C          3.81583        2.06970       -3.26811
H          3.94076        2.83686       -4.04828
H          2.92523        1.47794       -3.52582
H          4.69272        1.40177       -3.31439
C         -0.70212        0.72751       -3.04995
H         -0.76033       -0.31906       -3.35771
C         -0.99536        2.45695       -1.39719
H         -1.30839        2.78005       -0.40344
C         -0.16040        1.66814       -3.92027
H          0.16936        1.35792       -4.91476
C         -0.43052        3.40930       -2.25416
C         -0.23652        4.82575       -1.79539
H         -0.39505        5.54329       -2.61374
H         -0.92344        5.08139       -0.97588
H          0.79129        4.98096       -1.42410
C         -0.01653        2.99754       -3.52460
H          0.42677        3.72450       -4.21074
H         -2.77534       -1.32153       -2.38645
H         -3.82437       -0.06701       -1.69608
C         -3.81166       -1.96845       -0.60235
H         -3.03115       -2.67866       -0.27785
H         -4.22500       -1.52410        0.32245
C         -4.92602       -2.73412       -1.31820
H         -4.48710       -3.16864       -2.23610
C         -5.41856       -3.88315       -0.44622
H         -4.59496       -4.56082       -0.17281
H         -6.18941       -4.47796       -0.96040
H         -5.86170       -3.50240        0.48948
C         -6.08141       -1.82908       -1.73159
H         -6.87737       -2.40283       -2.23134
H         -5.76057       -1.03774       -2.42563
H         -6.52861       -1.33973       -0.84930
H         -1.51550        1.32642        1.23355
H         -2.55237       -0.03080        1.59144
C         -3.58117        1.60952        0.58286
H         -3.51578        2.09319       -0.40620
H         -4.48610        0.97688        0.54537
C         -3.77453        2.69978        1.64103
H         -2.87243        3.34142        1.61272
C         -4.98105        3.56639        1.30325
H         -4.89170        4.00660        0.29764
H         -5.09933        4.39095        2.02339
H         -5.90952        2.97155        1.32408
C         -3.88080        2.12579        3.04922
H         -4.02930        2.92529        3.79185
H         -2.97254        1.57428        3.33416
H         -4.73710        1.43456        3.12854
