110
Cat461.ts34.5.log	Energy: -2060582.0062366
C          0.64204       -1.87729       -3.03017
H          0.26434       -1.66518       -4.03462
H          1.71684       -2.08605       -2.99069
C         -0.22282       -2.61265       -2.14270
H         -1.25001       -2.83578       -2.44674
H          0.21611       -3.41824       -1.54138
H         -0.04323       -1.87255       -0.78333
Ir        -0.11097       -0.43143       -1.63272
C          1.82106       -0.53286        1.32117
C          3.42245       -0.57877       -1.17490
C          2.37102        1.83325       -0.35647
C         -1.80387        1.29831        1.10366
C         -3.55002        0.50857       -0.90645
C         -2.24915       -1.65017        0.60051
P         -1.92840       -0.02043       -0.20375
P          1.85146        0.05987       -0.41357
C         -0.43894        0.90704       -2.90701
O         -0.60959        1.74048       -3.69991
C          1.61702        0.30332        2.43069
O          1.43393        1.61062        2.18236
C          1.69036        2.55246        3.18261
H          1.65983        3.53411        2.69292
H          0.92276        2.53336        3.97363
H          2.68695        2.39687        3.63237
C          1.89865       -1.92044        1.54561
O          1.98158       -2.68181        0.43845
C          2.12940       -4.06647        0.55841
H          2.22904       -4.45755       -0.46211
H          1.24854       -4.52823        1.03731
H          3.03519       -4.33216        1.13119
C          1.88331       -2.45171        2.83859
H          1.96637       -3.52542        3.00195
C          1.59145       -0.22102        3.73211
H          1.45613        0.44159        4.58671
C          1.73700       -1.58954        3.92282
H          1.71950       -1.99791        4.93626
C          3.50494       -0.29363       -2.54178
H          2.65361        0.21253       -3.00725
C          4.51484       -1.24239       -0.57428
O          4.46834       -1.48904        0.74975
C          5.46204       -2.25493        1.35502
H          5.56412       -3.25109        0.88706
H          5.15561       -2.38320        2.40220
H          6.44902       -1.75724        1.32933
C          4.61031       -0.64163       -3.31433
H          4.63387       -0.39627       -4.37794
C          5.61878       -1.61466       -1.35378
H          6.46028       -2.13359       -0.89404
C          5.66737       -1.31448       -2.71323
H          6.54181       -1.61203       -3.29736
C          1.66397        2.77390       -1.09448
H          0.76216        2.44177       -1.60647
C          3.53719        2.25089        0.32032
O          4.17003        1.31203        1.04417
C          5.38729        1.60560        1.65818
H          6.15070        1.92050        0.92502
H          5.71725        0.67981        2.14576
H          5.28476        2.39437        2.42519
C          2.08874        4.10265       -1.18548
H          1.52558        4.81598       -1.79099
C          3.96727        3.57684        0.23818
H          4.86958        3.89899        0.75897
C          3.24015        4.49857       -0.51865
H          3.59068        5.53181       -0.58400
C         -1.93964        1.18389        2.50175
O         -2.24502       -0.02463        3.00261
C         -2.21463       -0.25214        4.37839
H         -2.38633       -1.32873        4.51232
H         -1.23515        0.00852        4.81544
H         -3.00655        0.30653        4.90952
C         -1.59569        2.59401        0.58144
O         -1.56156        2.68498       -0.75871
C         -1.66567        3.93365       -1.38523
H         -1.68675        3.73012       -2.46258
H         -0.79877        4.57705       -1.16034
H         -2.59206        4.45295       -1.08592
C         -1.46585        3.71552        1.40835
H         -1.29406        4.70144        0.97941
C         -1.80430        2.30330        3.33598
H         -1.91392        2.19912        4.41483
C         -1.56741        3.55519        2.78279
H         -1.47025        4.42495        3.43737
C         -3.67572        0.81922       -2.25451
H         -2.80284        0.69565       -2.89618
C         -4.68311        0.62332       -0.07632
O         -4.51738        0.24747        1.20415
C         -5.56590        0.37386        2.11449
H         -5.90199        1.42144        2.21194
H         -5.17537        0.03180        3.08128
H         -6.43166       -0.25359        1.83643
C         -4.88654        1.26601       -2.78758
H         -4.95836        1.50987       -3.84960
C         -5.89793        1.07462       -0.59949
H         -6.77599        1.16818        0.04051
C         -5.99179        1.39751       -1.95450
H         -6.94606        1.75013       -2.35445
C         -1.37653       -2.10400        1.59079
H         -0.59226       -1.43878        1.94698
C         -3.20126       -2.55822        0.09574
O         -3.95012       -2.14843       -0.94474
C         -4.96970       -2.95676       -1.44863
H         -4.57894       -3.89794       -1.87510
H         -5.45404       -2.37719       -2.24518
H         -5.72037       -3.20125       -0.67606
C         -1.47619       -3.38240        2.13319
H         -0.77912       -3.69046        2.91518
C         -3.31570       -3.84265        0.64576
H         -4.06533       -4.53518        0.26241
C         -2.46203       -4.24846        1.66732
H         -2.56177       -5.25410        2.08367
