80
Cat475.ts34.5.log	Energy: -1829408.9688033
C         -0.64504       -3.55419       -0.53582
H         -0.28713       -4.30328        0.17569
H         -1.72540       -3.58576       -0.71064
C          0.21698       -3.23743       -1.64349
H          1.22144       -3.66760       -1.69423
H         -0.24124       -3.12587       -2.63292
H          0.21996       -1.64935       -1.73996
Ir         0.18964       -1.62182       -0.05316
O         -2.01756        0.62679       -1.30118
C         -3.30656       -1.49397       -0.22848
C         -2.18479        0.53218        1.43839
O          2.24653        0.59894        1.37173
C          3.28091       -0.31239       -1.00339
C          1.24107        1.66842       -0.86693
P          1.71885        0.06833       -0.13661
P         -1.80230       -0.47687       -0.03576
C          0.77130       -2.18265        1.66003
O          1.09894       -2.50088        2.72185
C         -2.82458        1.72873       -1.25105
C         -2.35705        2.89684       -0.64422
H         -1.36757        2.89400       -0.18578
C         -4.09223        1.70151       -1.83496
H         -4.44727        0.78324       -2.30392
C         -3.15742        4.03440       -0.62383
H         -2.78409        4.94472       -0.14887
C         -4.88826        2.84627       -1.80769
H         -5.87967        2.82190       -2.26664
C         -4.42693        4.01408       -1.20233
H         -5.05417        4.90801       -1.18395
C         -3.89275       -2.13462        0.87064
H         -3.52742       -1.92853        1.87988
C         -3.76809       -1.79932       -1.51502
H         -3.29516       -1.32662       -2.37921
C         -4.93803       -3.03642        0.69491
H         -5.40965       -3.53814        1.54178
C         -4.81484       -2.69754       -1.70468
H         -5.19023       -2.94012       -2.70053
C         -5.38955       -3.30231       -0.59303
F         -6.39109       -4.16133       -0.76590
C         -3.48044        1.00374        1.70131
H         -4.30919        0.72046        1.04904
C         -1.13760        0.91752        2.28362
H         -0.12601        0.55191        2.09117
C         -3.72593        1.84319        2.78113
H         -4.72618        2.22255        2.99643
C         -1.36885        1.76181        3.36556
H         -0.56200        2.06797        4.03355
C         -2.66201        2.21429        3.59717
F         -2.89169        3.02132        4.62856
C          3.53873        0.53204        1.82547
C          4.49059        1.46053        1.40114
H          4.20855        2.23200        0.68305
C          3.87971       -0.46142        2.74316
H          3.11783       -1.17450        3.06146
C          5.79136        1.38614        1.89361
H          6.53603        2.11099        1.55628
C          5.18265       -0.52297        3.23306
H          5.44849       -1.30118        3.95244
C          6.14286        0.39487        2.80884
H          7.16411        0.33883        3.19186
C          3.96943        0.62046       -1.78822
H          3.55519        1.61958       -1.93996
C          3.82492       -1.59088       -0.82541
H          3.27003       -2.32129       -0.22891
C          5.18170        0.28700       -2.38368
H          5.73050        0.99661       -3.00527
C          5.04431       -1.93069       -1.39922
H          5.48869       -2.91817       -1.26373
C          5.70597       -0.98327       -2.17305
F          6.86727       -1.30351       -2.73436
C          1.43555        2.87718       -0.19099
H          1.85508        2.86783        0.81648
C          0.66642        1.68124       -2.14445
H          0.46817        0.73840       -2.65906
C          1.08614        4.08728       -0.78891
H          1.22432        5.04060       -0.27577
C          0.32330        2.88160       -2.75393
H         -0.13395        2.91157       -3.74405
C          0.54052        4.07160       -2.06611
F          0.20037        5.22144       -2.63946
