94
Cat442.ts34.5.log	Energy: -1678374.2229233
C         -0.78833       -3.42544       -1.08970
H         -0.34327       -4.34565       -0.70113
H         -1.87894       -3.37560       -1.03661
C         -0.14531       -2.80643       -2.21306
H          0.78093       -3.22764       -2.61382
H         -0.79062       -2.36805       -2.98275
H          0.02290       -1.22417       -1.84660
Ir         0.26288       -1.71349       -0.26749
C         -1.93501        1.19405       -0.32738
O         -2.94039       -1.24079       -0.82733
O         -2.42018       -0.66210        1.56565
C          1.42553        1.61152        0.33682
O          2.93235       -0.50911        1.14066
O          2.87920        0.15541       -1.30411
P          1.86452       -0.13273       -0.04384
P         -1.72582       -0.60023        0.07935
C          1.03711       -2.73913        1.12984
O          1.47990       -3.37128        1.98963
C         -2.13192        2.24520        0.59514
O         -2.13693        1.94862        1.90799
C         -2.53510        2.92391        2.82596
H         -2.56775        2.43249        3.80741
H         -1.82202        3.76501        2.87243
H         -3.54039        3.31713        2.59535
C         -1.84468        1.53983       -1.69563
O         -1.60922        0.52633       -2.55182
C         -1.46961        0.78562       -3.91758
H         -1.24818       -0.17729       -4.39503
H         -0.63843        1.48211       -4.11876
H         -2.39733        1.19433       -4.35588
C         -2.01609        2.85613       -2.13747
H         -1.97085        3.09918       -3.19792
C         -2.31276        3.56413        0.15128
H         -2.47233        4.36885        0.86610
C         -2.26021        3.85430       -1.20318
H         -2.40121        4.88481       -1.53804
C         -4.28836       -0.77689       -0.76382
H         -4.30502        0.20581       -0.25786
C         -5.11621       -1.75966        0.04105
H         -4.72761       -1.82532        1.06546
H         -5.07167       -2.76027       -0.41655
H         -6.16953       -1.44206        0.08173
C         -4.78500       -0.60803       -2.18581
H         -4.17277        0.12846       -2.72298
H         -4.72095       -1.56663       -2.72389
H         -5.83252       -0.27092       -2.19638
C         -1.84420       -1.40438        2.63956
H         -0.74632       -1.31445        2.56342
C         -2.22229       -2.86943        2.53779
H         -1.88991       -3.28032        1.57415
H         -3.31238       -3.00062        2.62308
H         -1.73629       -3.44727        3.33849
C         -2.32215       -0.76309        3.92484
H         -3.41996       -0.81188        3.99620
H         -1.89443       -1.28159        4.79616
H         -2.02268        0.29170        3.95612
C          1.33533        2.64331       -0.62013
O          1.42613        2.29961       -1.91705
C          1.50830        3.30078       -2.88815
H          1.65223        2.78966       -3.84919
H          0.58373        3.90152       -2.93799
H          2.36627        3.97259       -2.71205
C          1.12030        1.92963        1.67700
O          1.04390        0.89033        2.52299
C          0.89186        1.11312        3.89372
H          0.88728        0.12387        4.36795
H         -0.05896        1.62237        4.12305
H          1.72710        1.70640        4.30487
C          0.92385        3.25473        2.08352
H          0.74218        3.49570        3.12988
C          1.13383        3.97152       -0.21810
H          1.08969        4.77294       -0.95322
C          0.95361        4.26246        1.12721
H          0.80238        5.30015        1.43465
C          4.22998        0.06793        1.27556
H          4.46760        0.62722        0.35470
C          5.20383       -1.08503        1.42594
H          5.13984       -1.75774        0.55914
H          4.95693       -1.67230        2.32356
H          6.23822       -0.71979        1.51488
C          4.26904        1.01168        2.46324
H          3.61186        1.87823        2.30922
H          3.95389        0.48464        3.37671
H          5.29306        1.38586        2.61532
C          3.08273       -0.80279       -2.33944
H          2.64410       -1.76287       -2.00917
C          4.57486       -0.96609       -2.54378
H          5.05911       -1.32499       -1.62485
H          5.03304       -0.00394       -2.82170
H          4.77781       -1.69126       -3.34628
C          2.36349       -0.33820       -3.59025
H          1.29686       -0.18930       -3.37393
H          2.78329        0.61735       -3.94041
H          2.46362       -1.08143       -4.39604
