108
Cat434.ts34.5.log	Energy: -1732583.0600532
C          0.43069       -3.05412       -2.59382
H          0.01597       -3.18745       -3.59691
H          1.52119       -3.14914       -2.55924
C         -0.33135       -3.58649       -1.49217
H         -1.32477       -4.00652       -1.67147
H          0.19995       -4.12444       -0.69749
H         -0.27688       -2.45019       -0.39432
Ir        -0.46447       -1.34375       -1.64428
C          1.81563       -0.33642        0.90536
C          3.04279       -0.98365       -1.67554
C          1.58272        1.54341       -1.33780
C         -2.11819        1.49401       -0.21881
C         -3.84739       -0.60896       -0.95376
C         -2.17400       -0.87782        1.43251
P         -2.09318       -0.34173       -0.34312
P          1.48961       -0.27899       -0.89599
C         -1.14006       -0.61041       -3.24423
O         -1.56460       -0.14575       -4.21920
C          1.13401        0.54409        1.75893
H          0.47399        1.30897        1.34705
C          2.62915       -1.31851        1.48063
H          3.12644       -2.05335        0.84433
C          1.30211        0.45752        3.13704
H          0.76920        1.15477        3.78830
C          2.82838       -1.40325        2.86321
C          3.78696       -2.40729        3.43540
H          3.88055       -3.29344        2.79124
H          4.79417       -1.96864        3.53723
H          3.47675       -2.74274        4.43581
C          2.15082       -0.50069        3.68960
H          2.28671       -0.55147        4.77326
H          3.12565       -2.01426       -1.29861
H          2.75354       -1.07697       -2.73339
C          4.33380       -0.23797       -1.54653
C          4.68483        0.73154       -2.49589
H          4.04267        0.89439       -3.36553
C          5.21285       -0.45898       -0.47750
H          4.97665       -1.22723        0.26005
C          5.84739        1.48298       -2.34627
H          6.10270        2.24006       -3.09147
C          6.38442        0.28416       -0.31085
C          7.27142        0.05454        0.87823
H          7.02774        0.76272        1.68778
H          7.14847       -0.96042        1.28287
H          8.33241        0.19867        0.62691
C          6.68827        1.27028       -1.25706
H          7.59924        1.86486       -1.14635
H          2.23271        1.57519       -2.22623
H          0.57330        1.80111       -1.68029
C          2.03814        2.54378       -0.31364
C          1.15735        3.55311        0.09440
H          0.16444        3.61330       -0.35350
C          3.30131        2.48451        0.28003
H          3.99690        1.69881       -0.01515
C          1.53270        4.46376        1.07780
H          0.83277        5.24520        1.38587
C          3.69287        3.38730        1.27276
C          5.04451        3.25347        1.91298
H          5.82909        3.10754        1.15489
H          5.30136        4.13865        2.51210
H          5.07223        2.37642        2.58112
C          2.79184        4.38075        1.66912
H          3.08071        5.09409        2.44619
C         -2.04507        2.21881       -1.41850
H         -1.88388        1.69714       -2.36458
C         -2.31541        2.18810        0.97592
H         -2.39353        1.64538        1.92027
C         -2.20587        3.60017       -1.41031
H         -2.16441        4.15627       -2.34986
C         -2.44870        3.58352        1.00334
C         -2.62437        4.29784        2.31085
H         -3.36443        3.78937        2.94721
H         -1.67420        4.32485        2.86975
H         -2.95388        5.33599        2.16405
C         -2.40793        4.27893       -0.20751
H         -2.52528        5.36602       -0.20884
H         -3.82054       -0.27442       -2.00205
H         -3.98339       -1.70027       -0.97745
C         -4.91696        0.09091       -0.17258
C         -5.58303       -0.54128        0.88739
H         -5.37981       -1.59072        1.11163
C         -5.23402        1.42618       -0.44570
H         -4.73190        1.93073       -1.27498
C         -6.51232        0.15451        1.65532
H         -7.02598       -0.35272        2.47571
C         -6.15588        2.14519        0.32128
C         -6.42953        3.58785        0.00861
H         -5.50829        4.18598        0.09554
H         -6.79605        3.71036       -1.02284
H         -7.18066        4.01460        0.68795
C         -6.79121        1.49230        1.38190
H         -7.51673        2.03515        1.99388
H         -1.38602       -0.31191        1.94940
H         -3.14788       -0.56250        1.84013
C         -1.93760       -2.34512        1.62835
C         -2.90714       -3.30090        1.30010
H         -3.88208       -2.98541        0.92594
C         -0.70098       -2.78834        2.10623
H          0.06317       -2.05012        2.36185
C         -2.63628       -4.65801        1.44218
H         -3.40122       -5.39419        1.18344
C         -0.41064       -4.15009        2.25297
C          0.93994       -4.58632        2.74041
H          1.71205       -4.39273        1.97782
H          1.23826       -4.03031        3.64145
H          0.95910       -5.66021        2.97351
C         -1.39514       -5.08211        1.91317
H         -1.18829       -6.15038        2.02087
