108
Cat414.ts34.5.log	Energy: -1544459.8690281
C         -0.98223       -0.02357       -3.47475
H         -0.71521       -0.81133       -4.18506
H         -2.05430        0.19967       -3.46189
C         -0.06772        1.08908       -3.35909
H          0.88647        1.06252       -3.89359
H         -0.49310        2.10126       -3.34079
H          0.03176        1.33849       -1.81865
Ir         0.03688       -0.33176       -1.60935
C         -1.53959        1.49234        0.96212
C         -3.37067        0.47075       -0.99385
C         -2.12048       -1.34492        1.08072
C          1.54590       -1.11847        1.44969
C          3.37175       -0.92436       -0.75353
C          2.17686        1.56024        0.54359
P          1.80816       -0.14935       -0.09197
P         -1.77158        0.02807       -0.12886
C          0.50804       -2.11005       -1.98782
O          0.80965       -3.21403       -2.19122
C         -1.34964        1.42740        2.34687
H         -1.38938        0.47089        2.86732
C         -1.46944        2.75072        0.34408
H         -1.58658        2.81621       -0.74235
C         -1.08435        2.58675        3.07717
H         -0.92125        2.51749        4.15599
C         -1.24077        3.92435        1.06325
C         -1.23410        5.25727        0.37207
H         -0.88505        5.16986       -0.66713
H         -2.24878        5.68834        0.34291
H         -0.58708        5.97960        0.89062
C         -1.03367        3.82547        2.44678
H         -0.83063        4.72834        3.02906
H         -3.00041        1.15862       -1.77892
C         -4.45462        1.22451       -0.22143
H         -4.02904        2.09731        0.29571
H         -4.87957        0.57633        0.56065
C         -5.57007        1.66414       -1.16777
H         -6.35774        2.19020       -0.60378
H         -5.16289        2.39718       -1.88823
C         -6.16127        0.48438       -1.93248
H         -6.93418        0.83071       -2.63789
H         -6.67216       -0.18699       -1.21823
C         -5.08168       -0.30306       -2.66723
H         -4.64989        0.32461       -3.46811
H         -5.51838       -1.18325       -3.16648
C         -3.96788       -0.73686       -1.71960
H         -4.38663       -1.43514       -0.97483
H         -3.17978       -1.28644       -2.25755
H         -1.24215       -1.27856        1.75078
C         -2.05805       -2.73452        0.44092
H         -1.12756       -2.83189       -0.13496
H         -2.88198       -2.85060       -0.28254
C         -2.15442       -3.83151        1.49611
H         -2.14931       -4.81934        1.00712
H         -1.25250       -3.79063        2.12915
C         -3.38658       -3.67893        2.37989
H         -3.39748       -4.45441        3.16333
H         -4.29699       -3.83772        1.77320
C         -3.44477       -2.28902        3.00207
H         -2.59026       -2.16069        3.69232
H         -4.35808       -2.17237        3.60847
C         -3.38749       -1.20638        1.92815
H         -4.26951       -1.31525        1.27498
H         -3.46044       -0.20649        2.38169
C          1.54576       -2.51906        1.36222
H          1.73543       -3.01361        0.40709
C          1.26100       -0.52935        2.68553
H          1.24667        0.55661        2.78264
C          1.29127       -3.29140        2.49026
H          1.31057       -4.38110        2.41268
C          0.96517       -1.29422        3.82104
C          0.59002       -0.62322        5.11078
H          1.02954        0.38200        5.18539
H         -0.50507       -0.50877        5.18907
H          0.91666       -1.20765        5.98315
C          0.99704       -2.68672        3.71205
H          0.78551       -3.30406        4.58943
H          2.97599       -1.89081       -1.11676
C          4.51294       -1.24592        0.21189
H          4.13534       -1.77353        1.10092
H          4.97999       -0.31653        0.57203
C          5.57255       -2.08730       -0.49661
H          6.40228       -2.30914        0.19436
H          5.13196       -3.06135       -0.77642
C          6.09508       -1.39136       -1.74938
H          6.83079       -2.02949       -2.26552
H          6.63567       -0.47420       -1.45125
C          4.95993       -1.01464       -2.69602
H          4.49342       -1.93351       -3.09407
H          5.35168       -0.46273       -3.56605
C          3.89010       -0.18864       -1.98911
H          4.32276        0.78100       -1.68502
H          3.04774        0.02902       -2.66588
H          1.27317        1.77147        1.14705
C          2.21840        2.63812       -0.54171
H          1.32650        2.56000       -1.17922
H          3.08849        2.47451       -1.19985
C          2.29962        4.02890        0.08023
H          2.35245        4.79213       -0.71345
H          1.36593        4.21599        0.63638
C          3.47941        4.16801        1.03451
H          3.47554        5.16352        1.50782
H          4.42341        4.09910        0.46368
C          3.45964        3.07110        2.09232
H          2.57387        3.20147        2.74085
H          4.34289        3.14821        2.74722
C          3.40730        1.69056        1.44497
H          4.31274        1.55827        0.82992
H          3.43276        0.90045        2.20983
