106
Cat441.ts34.5.log	Energy: -1776942.2522137
C         -0.96958       -0.70713       -3.50060
H         -0.48165       -1.45584       -4.13081
H         -2.03384       -0.89258       -3.32526
C         -0.51789        0.65861       -3.63413
H          0.36508        0.87114       -4.24374
H         -1.26658        1.45510       -3.70731
H         -0.46625        1.18012       -2.15208
Ir         0.17958       -0.31769       -1.73173
C         -2.69962        0.29226        0.52179
O         -2.38803       -2.09547       -0.86647
O         -0.74151       -1.50377        1.11690
C          2.50169       -0.00704        0.93052
O          2.70680        1.71952       -1.20634
O          0.68516        2.05562        0.35290
P          1.55406        0.88734       -0.38080
P         -1.46417       -0.89507       -0.22271
C          1.32926       -1.78975       -1.99687
O          1.99457       -2.72432       -2.16690
C         -2.97346        0.47720        1.89272
O         -2.56146       -0.48581        2.74781
C         -3.01288       -0.47029        4.07039
H         -2.63147       -1.38709        4.53915
H         -2.63117        0.39782        4.63612
H         -4.11544       -0.46914        4.12637
C         -3.29891        1.20146       -0.37596
O         -3.14689        0.91309       -1.68372
C         -3.76672        1.72012       -2.64585
H         -3.55199        1.26149       -3.61874
H         -3.36763        2.74919       -2.63488
H         -4.86033        1.75637       -2.50046
C         -4.04068        2.30303        0.06434
H         -4.48182        3.00209       -0.64418
C         -3.70568        1.58442        2.34605
H         -3.89562        1.72902        3.40865
C         -4.21730        2.49355        1.42836
H         -4.78611        3.35581        1.78379
C         -3.38175       -2.98312       -0.38227
H         -3.75485       -3.49824       -1.28303
H         -2.90790       -3.75430        0.24617
C         -4.54360       -2.34616        0.35196
H         -5.15578       -3.16448        0.77168
H         -4.16232       -1.78128        1.21775
C         -5.40636       -1.45058       -0.52647
H         -5.94240       -2.07952       -1.25927
H         -4.74683       -0.79790       -1.11740
C         -6.39442       -0.61208        0.26608
H         -7.07307       -1.24465        0.86196
H         -5.86715        0.06099        0.96090
H         -7.01703        0.01390       -0.39148
C         -0.99489       -2.69389        1.82448
H         -0.60596       -2.52747        2.84375
H         -2.07606       -2.87394        1.93124
C         -0.28044       -3.87378        1.19176
H         -0.56966       -4.79159        1.73577
H         -0.63963       -3.99346        0.15472
C          1.23235       -3.71207        1.19273
H          1.58494       -3.63261        2.23590
H          1.47690       -2.74754        0.72146
C          1.96751       -4.83246        0.47992
H          1.74273       -5.81649        0.92434
H          1.69375       -4.86784       -0.58541
H          3.05734       -4.68412        0.53202
C          3.57742       -0.82062        0.50928
O          3.87922       -0.76786       -0.79725
C          4.80373       -1.67095       -1.34004
H          4.80521       -1.49152       -2.42162
H          5.81903       -1.49927       -0.94157
H          4.49964       -2.71377       -1.15492
C          2.07545       -0.13707        2.26732
O          0.98414        0.55717        2.62881
C          0.43266        0.38019        3.89756
H         -0.46112        1.01524        3.93296
H          1.12593        0.69168        4.69916
H          0.13024       -0.66670        4.06611
C          2.76483       -0.95731        3.17146
H          2.44177       -1.03378        4.20844
C          4.26821       -1.64411        1.40689
H          5.10713       -2.25086        1.07033
C          3.85959       -1.69084        2.73328
H          4.39474       -2.33099        3.43866
C          3.36274        2.91416       -0.82964
H          3.82546        3.29260       -1.75593
H          2.62183        3.66817       -0.52102
C          4.43049        2.73868        0.23587
H          4.73798        3.74242        0.58098
H          3.99043        2.23550        1.11426
C          5.64505        1.95462       -0.24147
H          6.18636        2.55472       -0.99433
H          5.28634        1.05678       -0.76506
C          6.58478        1.56027        0.88565
H          6.95367        2.44285        1.43396
H          6.07373        0.90752        1.61197
H          7.46382        1.01425        0.50941
C          0.95323        3.03959        1.33107
H          0.46524        2.72386        2.26405
H          2.03092        3.12366        1.54519
C          0.36331        4.35899        0.87432
H          0.55586        5.11158        1.66005
H          0.88870        4.71229       -0.03089
C         -1.12803        4.25553        0.59079
H         -1.64721        3.91145        1.50229
H         -1.28439        3.45433       -0.14831
C         -1.74916        5.55078        0.09957
H         -1.63536        6.36379        0.83555
H         -1.27970        5.89081       -0.83810
H         -2.82617        5.42820       -0.09438
