76
Cat488.ts34.5.log	Energy: -1296729.9360160
C         -0.18707       -3.67814       -1.04138
H          0.30930       -4.51180       -0.53697
H         -1.27306       -3.79872       -1.11299
C          0.49872       -3.09294       -2.16894
H          1.51334       -3.42095       -2.41121
H         -0.08773       -2.86489       -3.06654
H          0.33983       -1.51893       -1.96282
Ir         0.57600       -1.79583       -0.31990
O         -1.58576        0.72302       -0.63605
C         -3.01017       -1.63633       -0.27869
C         -1.68909       -0.27627        1.90506
O          1.21934        1.12159        1.05069
C          3.56128        0.02150        0.25046
C          1.73868        1.18824       -1.69274
P          1.78698        0.13041       -0.19304
P         -1.43711       -0.77833        0.15787
C          1.55419       -2.57244        1.10290
O          2.15491       -3.01185        1.98985
C         -2.73297        1.44714       -0.74884
C         -3.12344        2.33946        0.25511
H         -2.50493        2.44473        1.14769
C         -3.49801        1.33124       -1.91343
H         -3.15905        0.65099       -2.69713
C         -4.29416        3.08040        0.10406
H         -4.59715        3.77188        0.89411
C         -4.66712        2.07413       -2.05397
H         -5.26433        1.97305       -2.96350
C         -5.07486        2.94544       -1.04336
H         -5.99330        3.52567       -1.15494
H         -3.08353       -1.57142       -1.37852
H         -2.80219       -2.69889       -0.06604
C         -4.32242       -1.22394        0.38133
H         -4.49563       -0.14456        0.25646
H         -4.25441       -1.39853        1.46767
C         -5.50811       -1.99196       -0.18259
H         -5.63353       -1.79048       -1.25859
H         -5.37804       -3.07964       -0.06241
H         -6.44552       -1.70885        0.31983
H         -0.87948        0.44499        2.10168
H         -2.65127        0.25094        2.00949
C         -1.60083       -1.44551        2.87796
H         -0.64708       -1.97165        2.71265
H         -2.39342       -2.18226        2.65731
C         -1.70714       -1.00188        4.32861
H         -0.90241       -0.29398        4.58297
H         -2.66657       -0.49785        4.52859
H         -1.62887       -1.85764        5.01626
C          1.37789        2.47217        1.13417
C          0.44596        3.31244        0.51923
H         -0.37917        2.86072       -0.03218
C          2.43600        3.01219        1.86869
H          3.13635        2.33745        2.36452
C          0.59570        4.69350        0.61394
H         -0.13199        5.34681        0.12629
C          2.57600        4.39603        1.95796
H          3.40657        4.81737        2.52959
C          1.66358        5.24095        1.32605
H          1.77934        6.32464        1.39682
H          3.97833        1.03908        0.33437
H          3.58160       -0.42537        1.25877
C          4.36725       -0.83118       -0.72151
H          4.34434       -0.37345       -1.72602
H          3.86703       -1.80890       -0.82435
C          5.80920       -1.02095       -0.27803
H          6.33450       -0.05649       -0.18785
H          5.85728       -1.51815        0.70368
H          6.37002       -1.64107       -0.99367
H          1.83622        0.46735       -2.52169
H          0.69605        1.54500       -1.74551
C          2.74287        2.32419       -1.85577
H          3.76073        1.90604       -1.92891
H          2.74298        2.97336       -0.96758
C          2.44702        3.16472       -3.08848
H          2.44886        2.55204       -4.00441
H          1.45644        3.64030       -3.00994
H          3.19198        3.96438       -3.21751
