56
Cat407.ts34.5.log	Energy: -1054469.7178044
C          3.64757        1.18397        0.04681
H          4.50793        0.55743       -0.20501
H          3.61052        2.11860       -0.52304
C          3.26379        1.23257        1.44017
H          3.76661        0.57628        2.15615
H          3.03354        2.21381        1.87327
H          1.70327        1.11194        1.42012
Ir         1.86844       -0.01298        0.16497
C         -1.19663        1.60695       -0.71254
C          1.08295        3.08701       -1.46226
C          0.41665        0.77687       -2.94766
C         -1.27216       -1.65040        0.18020
C          0.74273       -3.02782        1.60430
C         -0.40265       -0.69891        2.76432
P          0.24038       -1.31773        1.16698
P          0.55090        1.34193       -1.20944
C          2.61275       -1.51584       -0.69305
O          3.01936       -2.45335       -1.24168
C         -2.29171        1.31491       -1.52820
H         -2.14875        0.90760       -2.52991
C         -1.42939        2.09972        0.57948
H         -0.57013        2.29826        1.22899
C         -3.58726        1.52290       -1.05427
H         -4.44007        1.27952       -1.69292
C         -2.71830        2.32156        1.06485
C         -2.94604        2.85743        2.44908
H         -3.63374        2.21380        3.02010
H         -2.00497        2.93210        3.01222
H         -3.39733        3.86234        2.41837
C         -3.80121        2.02590        0.22390
H         -4.82212        2.18781        0.58220
H          1.12590        3.59880       -0.49010
H          2.09169        3.09482       -1.90073
H          0.39087        3.62694       -2.12579
H         -0.15082        1.47449       -3.58314
H          1.44035        0.67609       -3.33510
H         -0.05267       -0.21607       -2.97147
C         -1.09177       -2.12486       -1.12738
H         -0.07926       -2.26409       -1.51693
C         -2.56756       -1.45509        0.65806
H         -2.72848       -1.06976        1.66747
C         -2.19524       -2.40302       -1.92482
H         -2.05187       -2.77697       -2.94179
C         -3.68997       -1.72389       -0.13771
C         -5.06981       -1.49977        0.40723
H         -5.27945       -2.17646        1.25124
H         -5.18038       -0.46951        0.77967
H         -5.83990       -1.67038       -0.35811
C         -3.48612       -2.20043       -1.43400
H         -4.34961       -2.41331       -2.07026
H          1.08684       -3.54237        0.69618
H          1.58762       -2.97542        2.30606
H         -0.09086       -3.59077        2.05102
H         -1.09545       -1.40962        3.23919
H          0.46079       -0.53550        3.42435
H         -0.90728        0.26395        2.60633
