98
Cat454.ts34.5.log	Energy: -2211043.8373017
C         -0.56129        2.92208       -2.06100
H         -0.27166        3.02743       -3.10971
H         -1.63737        3.02289       -1.88308
C          0.34537        3.42628       -1.06857
H          1.32384        3.81417       -1.36509
H         -0.07920        3.94956       -0.20358
H          0.47763        2.25742        0.02455
Ir         0.40444        1.16385       -1.24394
C         -2.55504        1.51150        0.64994
O         -2.51995       -0.05417       -1.69289
O         -1.60902       -1.03093        0.50304
C          1.79551       -1.47284        0.79927
O          3.15513       -0.61022       -1.36005
O          3.06655        0.87105        0.74260
P          2.06581        0.00217       -0.25842
P         -1.56982        0.37245       -0.41197
C          0.77584        0.33394       -2.91442
O          0.97907       -0.24225       -3.89241
C         -1.90828        1.87121        1.85362
O         -0.77887        1.19259        2.10921
C         -0.00525        1.48442        3.23932
H          0.90482        0.87811        3.14782
H          0.27372        2.55132        3.27149
H         -0.53880        1.21816        4.16799
C         -3.75506        2.16925        0.32308
O         -4.37661        1.78938       -0.80864
C         -5.60168        2.37971       -1.14805
H         -5.93847        1.88722       -2.06787
H         -5.49588        3.46207       -1.33450
H         -6.36163        2.22133       -0.36402
C         -4.27652        3.15960        1.16825
H         -5.20459        3.67068        0.91822
C         -2.42725        2.85032        2.70374
H         -1.92602        3.10531        3.63639
C         -3.60988        3.48574        2.34314
H         -4.02832        4.25321        2.99844
C         -3.59228       -0.86023       -1.90633
C         -4.52978       -0.42094       -2.84613
H         -4.36881        0.54948       -3.31700
C         -3.73881       -2.12309       -1.32534
H         -2.99162       -2.48543       -0.62204
C         -5.62217       -1.21334       -3.17924
H         -6.36007       -0.88639       -3.91440
C         -4.83936       -2.91558       -1.64938
H         -4.97418       -3.90030       -1.19817
C         -5.77209       -2.45255       -2.56606
F         -6.82403       -3.21301       -2.87603
C         -2.30031       -1.25053        1.66132
C         -1.58183       -1.72523        2.75913
H         -0.50845       -1.87980        2.65433
C         -3.67785       -1.04338        1.76437
H         -4.24409       -0.68266        0.90575
C         -2.23171       -1.99231        3.95916
H         -1.68826       -2.36934        4.82761
C         -4.33106       -1.30088        2.96834
H         -5.40578       -1.14268        3.07205
C         -3.60148       -1.77011        4.05183
F         -4.22640       -2.01730        5.20524
C          2.14125       -1.66901        2.15259
O          2.73045       -0.65454        2.81370
C          3.19706       -0.85525        4.11831
H          3.69463        0.07738        4.41371
H          2.37468       -1.06228        4.82582
H          3.92721       -1.68094        4.16868
C          1.14760       -2.53087        0.12252
O          0.87582       -2.29161       -1.16529
C          0.11372       -3.19190       -1.92344
H         -0.03153       -2.71555       -2.90055
H         -0.86923       -3.37406       -1.46032
H          0.64265       -4.15065       -2.05897
C          0.85332       -3.74200        0.75517
H          0.35242       -4.54478        0.21666
C          1.86586       -2.89198        2.78291
H          2.14343       -3.05172        3.82323
C          1.22997       -3.90927        2.08009
H          1.01715       -4.85441        2.58472
C          3.99354       -1.66484       -1.13902
C          4.01146       -2.68160       -2.09416
H          3.35390       -2.59083       -2.96032
C          4.81690       -1.73743       -0.01323
H          4.79186       -0.93334        0.72426
C          4.85298       -3.77747       -1.92795
H          4.88975       -4.58525       -2.66116
C          5.65317       -2.83764        0.15883
H          6.30549       -2.92379        1.02969
C          5.66061       -3.84431       -0.79850
F          6.46301       -4.89786       -0.63148
C          3.37024        2.17686        0.48670
C          3.16561        3.10879        1.50254
H          2.76152        2.76470        2.45547
C          3.88182        2.58094       -0.74908
H          4.03208        1.83975       -1.53523
C          3.47206        4.45144        1.29205
H          3.32271        5.20110        2.07108
C          4.18441        3.92267       -0.96483
H          4.58331        4.26638       -1.92084
C          3.97411        4.84214        0.05687
F          4.26394        6.12735       -0.15178
