100
Cat432.ts34.5.log	Energy: -1822635.1477223
C          0.96522       -1.07058       -3.19186
H          0.82008       -0.48640       -4.10536
H          1.99518       -1.41229       -3.04076
C         -0.10056       -1.96594       -2.81142
H         -1.03825       -1.96468       -3.37594
H          0.17741       -2.97572       -2.48241
H         -0.26440       -1.75566       -1.27643
Ir        -0.00884       -0.11405       -1.53769
C          1.39440       -1.14246        1.56333
C          3.24800       -1.10191       -0.63411
C          2.49527        1.35681        0.58030
C         -1.68130        1.88150        0.76474
C         -3.44928        0.52594       -1.06396
C         -2.32046       -0.94729        1.07211
P         -1.84975        0.32070       -0.17951
P          1.76032       -0.23213        0.00674
C         -0.12313        1.56126       -2.39267
O         -0.16171        2.59413       -2.91713
C          1.56761       -0.60022        2.84043
H          1.99362        0.39662        2.95997
C          0.83059       -2.42016        1.44906
H          0.64420       -2.82735        0.45072
C          1.18281       -1.32722        3.96584
H          1.30248       -0.88703        4.95933
C          0.48814       -3.18173        2.56792
C         -0.02718       -4.58270        2.41563
H         -0.48727       -4.73366        1.42905
H          0.79160       -5.31484        2.51865
H         -0.78090       -4.81937        3.18014
C          0.65895       -2.60934        3.83449
H          0.36745       -3.17384        4.72453
C          3.69677       -2.34143       -0.18065
H          3.20372       -2.80339        0.67688
C          3.91596       -0.50218       -1.72363
O          3.45450        0.70375       -2.09559
C          3.86998        1.28070       -3.29827
H          4.93518        1.57136       -3.26875
H          3.25680        2.18040       -3.43568
H          3.70557        0.59965       -4.15151
C          4.76920       -2.99194       -0.79278
H          5.10254       -3.96267       -0.41913
C          4.98784       -1.15131       -2.34345
H          5.49807       -0.68711       -3.18822
C          5.40982       -2.39534       -1.87431
H          6.24940       -2.89562       -2.36318
C          1.91100        2.55765        0.18383
H          1.00014        2.50973       -0.41395
C          3.69213        1.40532        1.32969
O          4.22873        0.22514        1.68613
C          5.45823        0.18391        2.34804
H          6.25498        0.67180        1.76007
H          5.70669       -0.87773        2.47134
H          5.40638        0.65886        3.34402
C          2.46849        3.79028        0.52103
H          1.98064        4.71304        0.20191
C          4.25910        2.63906        1.66974
H          5.18236        2.68183        2.24803
C          3.64344        3.82359        1.26368
H          4.09758        4.77994        1.53564
C         -2.33943        3.05000        0.36678
H         -3.05451        3.02336       -0.45815
C         -0.74623        1.94919        1.80095
H         -0.18865        1.05329        2.08101
C         -2.06872        4.25025        1.01850
H         -2.58008        5.16300        0.70230
C         -0.47811        3.14320        2.47667
C          0.55559        3.17162        3.56379
H          0.41553        2.34095        4.27233
H          1.56569        3.07021        3.13301
H          0.52547        4.11429        4.12831
C         -1.15465        4.29718        2.07051
H         -0.95393        5.24568        2.57647
C         -3.48487        0.37674       -2.44826
H         -2.53206        0.18058       -2.95154
C         -4.65523        0.77494       -0.37356
O         -4.56387        0.92305        0.95854
C         -5.71590        1.13272        1.72114
H         -6.21751        2.07948        1.45423
H         -5.38886        1.18459        2.76719
H         -6.43494        0.30208        1.61243
C         -4.68127        0.47023       -3.15911
H         -4.68619        0.35443       -4.24482
C         -5.85891        0.86629       -1.08101
H         -6.79530        1.06099       -0.55750
C         -5.86350        0.71281       -2.46781
H         -6.81111        0.78874       -3.00742
C         -2.36234       -0.71630        2.44551
H         -2.10817        0.27233        2.82697
C         -2.70422       -2.22017        0.59758
O         -2.67475       -2.39003       -0.73807
C         -3.12320       -3.58770       -1.30022
H         -2.50625       -4.44773       -0.98405
H         -3.03889       -3.47101       -2.38788
H         -4.17736       -3.79024       -1.04234
C         -2.75056       -1.71221        3.34129
H         -2.76459       -1.50297        4.41275
C         -3.11050       -3.21696        1.48908
H         -3.41506       -4.19654        1.12020
C         -3.12753       -2.95942        2.85912
H         -3.44414       -3.74661        3.54799
