96
Cat420.ts34.5.log	Energy: -1633967.6600227
C          1.49327       -2.83969       -1.04036
H          1.28117       -3.30046       -2.00932
H          2.55487       -2.63071       -0.87008
C          0.70517       -3.27201        0.08048
H         -0.12896       -3.96000       -0.08262
H          1.22186       -3.43654        1.03376
H          0.25255       -1.93362        0.82922
Ir         0.09591       -1.22880       -0.68830
C          3.02586       -0.76745        1.13027
C          3.04431        0.72381       -1.31624
C          1.49245        1.71925        0.91344
C         -2.37101        1.33868       -0.82681
C         -3.34395       -1.41139       -0.52859
C         -2.27331        0.05399        1.72635
P         -1.95596       -0.28633       -0.05786
P          1.88925        0.16493        0.01561
C         -0.45435       -1.22977       -2.48760
O         -0.78112       -1.29009       -3.59862
C          2.52911       -1.32367        2.32077
H          1.49321       -1.14951        2.61884
C          4.33803       -1.07396        0.75459
H          4.73605       -0.67169       -0.18008
C          3.34285       -2.11745        3.12148
H          2.94725       -2.53068        4.05262
C          5.16304       -1.89018        1.53974
C          6.55327       -2.22097        1.07970
H          6.53464       -3.01886        0.31883
H          7.04228       -1.34888        0.62086
H          7.18196       -2.57104        1.91065
C          4.65302       -2.39936        2.73615
H          5.28346       -3.03112        3.36768
C          2.84973        0.15963       -2.58132
H          2.03209       -0.55353       -2.70341
C          4.08717        1.66249       -1.12678
C          4.38926        2.33057        0.18374
H          4.33834        1.63175        1.02899
H          3.66990        3.13617        0.39801
H          5.39518        2.77296        0.16195
C          3.65270        0.50052       -3.66541
H          3.47396        0.04378       -4.64139
C          4.88010        1.99356       -2.23368
H          5.68722        2.71874       -2.09710
C          4.67337        1.42908       -3.48945
H          5.31396        1.71561       -4.32725
C          1.71617        1.85678        2.28975
H          2.23331        1.06543        2.83509
C          0.86544        2.76852        0.20413
C          0.65834        2.72428       -1.27802
H          0.36241        1.71819       -1.61265
H          1.58688        2.97852       -1.81377
H         -0.12169        3.43370       -1.58357
C          1.30654        2.99345        2.97815
H          1.49022        3.07411        4.05215
C          0.46478        3.90441        0.91858
H         -0.02234        4.71500        0.37003
C          0.67049        4.02385        2.28943
H          0.34209        4.92292        2.81662
C         -2.36897        1.48605       -2.22280
H         -2.13581        0.64228       -2.87258
C         -2.59676        2.46916       -0.03614
H         -2.55551        2.38446        1.05158
C         -2.64267        2.72381       -2.79472
H         -2.64399        2.82495       -3.88258
C         -2.86038        3.72400       -0.59883
C         -3.12553        4.90548        0.28851
H         -4.18644        4.94324        0.58741
H         -2.52962        4.85067        1.21141
H         -2.89398        5.85336       -0.21856
C         -2.89065        3.83600       -1.99117
H         -3.09522        4.80660       -2.45159
C         -4.17446       -1.11030       -1.61445
H         -4.05885       -0.16217       -2.13911
C         -3.53522       -2.62847        0.16751
C         -2.74168       -3.01453        1.38039
H         -3.11026       -2.49696        2.28044
H         -1.68225       -2.74665        1.27203
H         -2.81280       -4.09633        1.56088
C         -5.16977       -1.98718       -2.03490
H         -5.79952       -1.72263       -2.88746
C         -4.54215       -3.49425       -0.27468
H         -4.68874       -4.43627        0.26128
C         -5.35426       -3.19113       -1.36340
H         -6.12850       -3.89313       -1.68188
C         -1.15077        0.07893        2.55569
H         -0.18201       -0.11248        2.09572
C         -3.55123        0.31426        2.27795
C         -4.82473        0.33433        1.48280
H         -5.17351       -0.68523        1.25668
H         -4.70524        0.84577        0.51872
H         -5.61664        0.84521        2.04821
C         -1.24726        0.34131        3.91806
H         -0.34637        0.36649        4.53523
C         -3.62767        0.56564        3.65404
H         -4.60981        0.76484        4.09156
C         -2.50040        0.57822        4.47209
H         -2.60590        0.78323        5.54030
