56
Cat469.ts34.5.log	Energy: -1288268.5884715
C          1.82637       -3.30665       -0.55024
H          2.65220       -3.67798        0.06236
H          0.93108       -3.93491       -0.53875
C          2.16087       -2.62555       -1.76985
H          3.20666       -2.40516       -1.99892
H          1.56373       -2.83671       -2.66327
H          1.18631       -1.31631       -1.78349
Ir         1.46359       -1.21453       -0.13832
O         -1.72172       -0.33577       -0.42397
O         -1.46280       -2.88461       -0.25106
O         -1.31518       -1.53344        1.79010
O          0.39466        1.75984        0.72286
O          2.75378        1.92054        0.06037
O          1.02139        1.58937       -1.78115
P          1.43438        1.02323       -0.31901
P         -0.74940       -1.51398        0.25244
C          2.64547       -1.18751        1.35682
O          3.35230       -1.16288        2.26866
C         -3.08849       -0.38234       -0.38975
C         -3.78439        0.15613        0.69389
H         -3.22563        0.59484        1.52171
C         -3.77785       -0.94159       -1.46724
H         -3.20421       -1.35310       -2.29926
C         -5.17741        0.12370        0.69833
H         -5.72254        0.54472        1.54660
C         -5.17003       -0.97039       -1.45164
H         -5.70981       -1.41004       -2.29391
C         -5.87437       -0.44122       -0.36948
H         -6.96628       -0.46547       -0.36051
C         -2.49206       -3.58159        0.43142
H         -2.15985       -3.88846        1.43355
H         -3.40186       -2.97098        0.52904
H         -2.71794       -4.47196       -0.17077
C         -0.76288       -0.67964        2.77104
H         -1.25835       -0.92028        3.72100
H          0.32207       -0.84236        2.87013
H         -0.92900        0.38039        2.52284
C         -0.13256        3.01418        0.55049
C         -1.40062        3.13087       -0.01813
H         -1.91485        2.22313       -0.33690
C          0.57673        4.13979        0.96695
H          1.56755        4.00669        1.40385
C         -1.95983        4.39669       -0.17778
H         -2.95238        4.49341       -0.62433
C          0.00622        5.40040        0.80034
H          0.55663        6.28764        1.12281
C         -1.25903        5.53344        0.22761
H         -1.70084        6.52423        0.10021
C          4.02891        1.55268       -0.42522
H          4.12696        0.45493       -0.47785
H          4.20683        1.97668       -1.42774
H          4.77809        1.95138        0.27191
C          1.25014        2.90038       -2.26808
H          0.31772        3.48244       -2.23725
H          2.01490        3.42499       -1.67680
H          1.59081        2.81303       -3.31004
