70
Cat440.ts34.5.log	Energy: -1481148.4435406
C         -3.63937        1.05060       -0.77027
H         -4.48930        0.86319       -0.10818
H         -3.44810        2.10559       -0.98589
C         -3.40744        0.10567       -1.82829
H         -4.01825       -0.79916       -1.88890
H         -3.11914        0.50037       -2.80883
H         -1.80498       -0.20144       -1.78619
Ir        -1.93117       -0.11008       -0.12075
C          1.24550        1.64117       -0.59778
O         -1.06470        2.73519       -1.49417
O         -0.55359        2.77962        0.98678
C          1.27226       -1.53360        0.66323
O         -0.97215       -2.98060        1.11224
O         -0.12638       -2.69680       -1.27286
P         -0.45114       -1.81632        0.07697
P         -0.56808        1.72616       -0.28107
C         -2.72258       -0.55935        1.54627
O         -3.18656       -0.79915        2.57805
C          2.29314        2.00782        0.27654
O          1.97002        2.45037        1.50349
C          2.97616        2.89356        2.36511
H          2.47271        3.23121        3.28039
H          3.68325        2.08628        2.62395
H          3.54029        3.74055        1.93675
C          1.59945        1.08462       -1.84554
O          0.57346        0.72874       -2.63928
C          0.76900       -0.24127       -3.63325
H         -0.22986       -0.49808       -4.00957
H          1.23645       -1.14421       -3.20911
H          1.37148        0.14387       -4.47446
C          2.93346        0.94117       -2.24067
H          3.17896        0.52134       -3.21543
C          3.63025        1.89204       -0.13117
H          4.43663        2.18715        0.53751
C          3.93543        1.36650       -1.37949
H          4.98211        1.27712       -1.68105
C         -0.37343        3.92679       -1.77926
H         -0.09722        4.46540       -0.85756
H          0.54333        3.72692       -2.35972
H         -1.04003        4.56294       -2.37983
C         -1.75012        3.05058        1.67296
H         -2.40615        3.72057        1.09079
H         -2.30652        2.12321        1.89046
H         -1.48286        3.54843        2.61626
C          2.48700       -1.77154       -0.01733
O          2.43409       -2.26690       -1.26658
C          3.62136       -2.58611       -1.93102
H          3.32892       -3.00011       -2.90493
H          4.25332       -1.69637       -2.09631
H          4.20685       -3.34536       -1.38350
C          1.34410       -0.97948        1.95944
O          0.16647       -0.80953        2.58022
C          0.03800        0.15901        3.58952
H         -1.03629        0.23637        3.79677
H          0.41984        1.13287        3.24255
H          0.55695       -0.14363        4.51556
C          2.56452       -0.66802        2.56689
H          2.58930       -0.24222        3.56919
C          3.71184       -1.48583        0.60297
H          4.64846       -1.66646        0.07934
C          3.73854       -0.93849        1.87899
H          4.70217       -0.71551        2.34401
C         -0.13422       -4.05137        1.47941
H          0.42351       -4.44726        0.61408
H          0.58647       -3.74487        2.25566
H         -0.77608       -4.84600        1.88558
C         -1.20026       -3.15775       -2.05585
H         -1.85249       -3.84149       -1.48711
H         -1.81691       -2.32115       -2.42449
H         -0.76922       -3.69945       -2.90981
