98
Cat452.ts34.5.log	Energy: -1962071.3073283
C         -1.08273        0.57023       -3.52288
H         -0.95368       -0.15502       -4.33157
H         -2.12975        0.78227       -3.27786
C         -0.13508        1.65383       -3.45661
H          0.73229        1.65803       -4.12201
H         -0.50597        2.66461       -3.24868
H          0.18146        1.76192       -1.89714
Ir         0.20297        0.08695       -1.86635
C         -3.16014        0.17989       -0.64106
O         -1.36641       -1.34478        0.70492
O         -1.06103        1.20880        0.91919
C          2.00103       -0.43972        1.17010
O          3.30679       -0.75097       -1.16932
O          2.84987        1.58741       -0.40822
P          2.05446        0.14205       -0.56767
P         -1.37269        0.04781       -0.22388
C          0.61254       -1.66684       -2.47902
O          0.80981       -2.75849       -2.80452
C         -4.06412        1.18953       -0.26125
O         -3.66415        2.04847        0.69434
C         -4.56124        3.01569        1.16588
H         -4.04659        3.54274        1.97822
H         -4.83528        3.73899        0.37861
H         -5.48078        2.55674        1.56757
C         -3.59544       -0.77836       -1.58294
O         -2.70821       -1.74742       -1.84625
C         -2.93694       -2.66807       -2.87625
H         -2.01637       -3.25712       -2.96990
H         -3.13546       -2.15859       -3.83410
H         -3.77866       -3.33967       -2.63512
C         -4.86299       -0.71377       -2.16791
H         -5.18337       -1.46139       -2.89215
C         -5.33685        1.26031       -0.84508
H         -6.03653        2.04304       -0.55716
C         -5.71696        0.31534       -1.79141
H         -6.71196        0.37830       -2.23824
C         -2.43616       -2.08998        1.10198
C         -3.48983       -1.55010        1.84241
H         -3.48299       -0.49203        2.10650
C         -2.43563       -3.44530        0.76513
H         -1.60669       -3.82791        0.16768
C         -4.54089       -2.37528        2.23960
H         -5.36466       -1.94875        2.81697
C         -3.48587       -4.26146        1.17384
H         -3.48041       -5.32169        0.90861
C         -4.54533       -3.72936        1.91062
H         -5.37159       -4.36964        2.22730
C         -1.27081        1.38582        2.24842
C         -1.13555        0.36247        3.18852
H         -0.88051       -0.64353        2.86029
C         -1.51701        2.69622        2.67276
H         -1.58214        3.47910        1.91546
C         -1.29446        0.65400        4.54300
H         -1.18769       -0.15372        5.27114
C         -1.66074        2.97590        4.02762
H         -1.84966        4.00348        4.34904
C         -1.56167        1.95203        4.97250
H         -1.67993        2.16905        6.03632
C          2.06439        0.37921        2.31562
O          2.11639        1.70603        2.12728
C          2.10011        2.57062        3.23053
H          2.08983        3.58719        2.81753
H          1.19797        2.42402        3.84771
H          2.99986        2.44677        3.85768
C          1.82477       -1.82788        1.35310
O          1.70505       -2.54448        0.22621
C          1.55402       -3.93480        0.28628
H          1.42207       -4.26818       -0.75025
H          0.66548       -4.21913        0.87480
H          2.44863       -4.41605        0.71761
C          1.79535       -2.39761        2.62923
H          1.67795       -3.47208        2.75869
C          2.05762       -0.19208        3.59583
H          2.12134        0.43882        4.48031
C          1.93034       -1.56725        3.73561
H          1.92037       -2.00368        4.73732
C          4.36166       -1.25179       -0.46356
C          4.74472       -2.56360       -0.74791
H          4.18137       -3.11349       -1.50391
C          5.05023       -0.50374        0.49360
H          4.74616        0.52476        0.69300
C          5.81779       -3.13125       -0.06703
H          6.11789       -4.15759       -0.29320
C          6.11731       -1.08736        1.17419
H          6.65304       -0.50372        1.92685
C          6.50497       -2.39822        0.90157
H          7.34351       -2.84686        1.43877
C          2.39849        2.81446       -0.78387
C          1.20342        3.34218       -0.28810
H          0.59864        2.74806        0.39595
C          3.18031        3.54993       -1.67540
H          4.10277        3.10422       -2.05195
C          0.80022        4.61312       -0.69436
H         -0.13815        5.02224       -0.31063
C          2.76976        4.82205       -2.06669
H          3.38498        5.39542       -2.76445
C          1.57711        5.35858       -1.58075
H          1.25468        6.35439       -1.89320
