96
Cat484.ts34.5.log	Energy: -1867801.9805258
C         -0.17144       -3.02068       -1.99130
H          0.31666       -3.95492       -1.70173
H         -1.25812       -3.08655       -2.09386
C          0.54856       -2.14969       -2.87918
H          1.58660       -2.37793       -3.13708
H         -0.00395       -1.67337       -3.69757
H          0.37170       -0.71517       -2.25641
Ir         0.52507       -1.40771       -0.73231
O         -1.93163        0.86788       -0.19787
O         -2.78158       -1.46132       -0.88372
O         -1.97314       -0.95265        1.48943
O          3.47915       -0.24789        0.25651
O          2.36841        1.45338       -1.11017
O          1.58542        1.01334        1.27460
P          1.94115        0.21887       -0.10729
P         -1.52878       -0.71890       -0.09281
C          1.30396       -2.63749        0.50772
O          1.75619       -3.39294        1.24560
C         -2.97533        1.59705        0.32950
C         -3.13363        1.75135        1.70547
H         -2.44585        1.24930        2.38289
C         -3.82714        2.24452       -0.56298
H         -3.67289        2.11118       -1.63427
C         -4.18261        2.53432        2.18286
H         -4.31368        2.65014        3.26147
C         -4.87125        3.02293       -0.07352
H         -5.54787        3.51581       -0.77530
C         -5.05729        3.16691        1.30101
H         -5.87963        3.77517        1.68375
C         -4.08523       -1.02750       -0.94795
C         -4.89993       -1.01989        0.18121
H         -4.49010       -1.34563        1.13782
C         -4.55171       -0.61018       -2.20231
C         -3.62704       -0.61628       -3.38106
H         -2.74701        0.02149       -3.19602
H         -3.24070       -1.62795       -3.58083
H         -4.13401       -0.25280       -4.28508
C         -6.21094       -0.56312        0.07206
H         -6.84890       -0.53756        0.95804
C         -5.87520       -0.17103       -2.28494
H         -6.26070        0.16180       -3.25265
C         -6.69983       -0.13817       -1.16117
H         -7.72766        0.22034       -1.25047
C         -1.54220       -2.05829        2.18554
C         -1.89257       -3.33834        1.76127
H         -2.50336       -3.45301        0.86378
C         -0.74809       -1.84497        3.32060
C         -0.36948       -0.45573        3.73196
H         -1.25709        0.12925        4.02206
H          0.31638       -0.47411        4.58955
H          0.12265        0.08191        2.90768
C         -1.44738       -4.44544        2.47953
H         -1.71383       -5.45078        2.14590
C         -0.32317       -2.97462        4.02507
H          0.30246       -2.83439        4.91059
C         -0.66112       -4.26283        3.61403
H         -0.30284       -5.12578        4.17944
C          4.17355       -1.15132       -0.50934
C          4.76726       -2.23109        0.14023
H          4.63373       -2.33811        1.21784
C          4.30061       -0.99038       -1.88980
H          3.83933       -0.12850       -2.37467
C          5.49499       -3.15924       -0.60025
H          5.95751       -4.00821       -0.09146
C          5.02529       -1.93025       -2.62023
H          5.12639       -1.80633       -3.70120
C          5.62371       -3.01572       -1.98154
H          6.19128       -3.74846       -2.55920
C          1.61513        2.54248       -1.48778
C          0.28097        2.42715       -1.86443
H         -0.20746        1.45480       -1.82776
C          2.28309        3.77719       -1.49942
C          3.71962        3.86280       -1.09018
H          3.84307        3.58941       -0.03081
H          4.34069        3.16276       -1.66953
H          4.10848        4.87996       -1.23243
C         -0.42699        3.56639       -2.24225
H         -1.48026        3.47706       -2.51663
C          1.54904        4.89969       -1.89067
H          2.04923        5.87187       -1.90244
C          0.20566        4.80604       -2.25582
H         -0.34367        5.70306       -2.55013
C          2.22673        2.12921        1.78197
C          3.54386        2.03248        2.23200
H          4.06136        1.07798        2.14332
C          1.49586        3.32107        1.87668
C          0.07067        3.42033        1.42734
H         -0.03156        4.15517        0.61404
H         -0.30808        2.46255        1.05640
H         -0.57695        3.75010        2.25433
C          4.17057        3.15307        2.76770
H          5.20356        3.08090        3.11523
C          2.15700        4.43046        2.41917
H          1.60996        5.37423        2.49557
C          3.47598        4.35910        2.85653
H          3.96161        5.24476        3.27250
