112
Cat480.ts34.5.log	Energy: -2154950.2044163
C          0.61520       -3.47109        0.00740
H          0.14730       -4.16456       -0.69788
H          1.70216       -3.58463        0.08425
C         -0.12247       -3.16867        1.21217
H         -1.13427       -3.56533        1.35131
H          0.44301       -3.14831        2.15315
H         -0.03920       -1.62778        1.38394
Ir        -0.17544       -1.49821       -0.28771
O          1.81237        0.82594        1.15355
C          3.16116       -1.43806        0.22425
C          2.46835        0.80784       -1.46789
O         -2.71964        0.25754       -1.40345
C         -3.30875       -0.68150        1.07125
C         -1.50277        1.64398        0.68918
P         -1.92888       -0.02038        0.03528
P          1.78023       -0.26852       -0.13301
C         -0.75417       -1.84009       -2.04958
O         -1.10705       -2.04409       -3.13400
C          2.65666        1.87385        1.34165
C          3.67714        1.78001        2.29133
H          3.80730        0.83403        2.81649
C          2.46146        3.06603        0.64087
H          1.63940        3.12975       -0.07217
C          4.50608        2.87387        2.52790
H          5.30320        2.79569        3.27212
C          3.30180        4.15123        0.87673
H          3.14545        5.07999        0.32224
C          4.32845        4.06190        1.81724
H          4.98222        4.91754        2.00215
C          3.73908       -2.12542       -0.86318
O          3.29610       -1.75266       -2.07758
C          3.76977       -2.38391       -3.22945
H          3.24768       -1.91526       -4.07315
H          4.85730       -2.24046       -3.35697
H          3.54707       -3.46510       -3.22405
C          3.48501       -1.88789        1.51522
O          2.82458       -1.32214        2.55653
C          3.03795       -1.81926        3.84463
H          2.37694       -1.25196        4.51232
H          4.08089       -1.67704        4.17946
H          2.78608       -2.89204        3.91869
C          4.43706       -2.90014        1.71152
H          4.70245       -3.22528        2.71620
C          4.68554       -3.13727       -0.67902
H          5.13474       -3.64194       -1.53350
C          5.03904       -3.50349        0.61506
H          5.77973       -4.29091        0.77202
C          3.83647        1.15742       -1.51001
O          4.59293        0.72463       -0.49052
C          5.92548        1.12793       -0.37276
H          6.29447        0.69118        0.56370
H          6.54246        0.75543       -1.20909
H          6.01084        2.22613       -0.31225
C          1.63557        1.30083       -2.49489
O          0.32333        1.06435       -2.39316
C         -0.52169        1.31292       -3.48505
H         -1.51463        0.97586       -3.17183
H         -0.19694        0.74769       -4.37476
H         -0.56368        2.38801       -3.73106
C          2.17092        2.04053       -3.56277
H          1.52453        2.39905       -4.36186
C          4.36742        1.91554       -2.55872
H          5.42425        2.17735       -2.57667
C          3.52594        2.33620       -3.58160
H          3.93621        2.92193       -4.40818
C         -4.01921        0.59854       -1.58306
C         -4.73508        1.41019       -0.69916
H         -4.26045        1.78916        0.20736
C         -4.62938        0.10894       -2.74103
H         -4.04345       -0.53882       -3.39627
C         -6.06168        1.72572       -0.98715
H         -6.62043        2.35733       -0.29168
C         -5.95176        0.44049       -3.02054
H         -6.42313        0.05493       -3.92823
C         -6.67636        1.24991       -2.14469
H         -7.71606        1.50506       -2.36162
C         -3.84531       -0.10891        2.24162
O         -3.58353        1.19046        2.46413
C         -3.81684        1.75226        3.72212
H         -3.36710        2.75366        3.69914
H         -4.89528        1.84569        3.94035
H         -3.33927        1.16231        4.52337
C         -3.77404       -1.96537        0.70469
O         -3.40036       -2.38643       -0.50843
C         -3.54199       -3.72700       -0.87985
H         -3.03227       -3.82984       -1.84589
H         -4.60329       -4.00667       -0.99847
H         -3.06834       -4.40344       -0.14782
C         -4.58678       -2.72059        1.55748
H         -4.91306       -3.72035        1.27289
C         -4.65831       -0.85822        3.10220
H         -5.04912       -0.41597        4.01788
C         -5.00208       -2.16092        2.75984
H         -5.63981       -2.74117        3.43120
C         -0.89739        1.65527        1.95943
O         -0.89007        0.46845        2.59112
C         -0.05487        0.27308        3.69788
H         -0.14088       -0.78944        3.96035
H          0.99043        0.50055        3.43983
H         -0.37768        0.87816        4.56369
C         -1.57986        2.85926       -0.01574
O         -2.14034        2.83860       -1.23884
C         -2.36161        4.03308       -1.92664
H         -2.88775        3.76287       -2.85126
H         -1.41596        4.54182       -2.18593
H         -2.99489        4.72849       -1.34857
C         -1.09016        4.04420        0.55641
H         -1.15657        4.98614        0.01410
C         -0.39193        2.82607        2.52678
H          0.09646        2.81040        3.50001
C         -0.50273        4.01434        1.81505
H         -0.10329        4.93658        2.24293
