104
Cat492.ts34.5.log	Energy: -1777645.2005448
C         -1.85377       -2.53732       -2.92063
H         -1.56842       -3.58974       -2.99755
H         -2.92545       -2.39025       -2.75676
C         -1.16136       -1.60402       -3.77228
H         -0.33109       -1.95331       -4.39205
H         -1.74911       -0.82086       -4.26429
H         -0.73847       -0.36208       -2.83548
Ir        -0.48133       -1.49655       -1.61737
O         -1.89754        1.23058       -0.38205
C         -3.85696       -0.68562       -0.79545
C         -2.06273       -0.80828        1.49550
O          1.47117       -0.33346        0.78328
C          2.92669       -0.85539       -1.58444
C          1.24695        1.55295       -1.19429
P          1.30470       -0.27573       -0.88462
P         -2.07552       -0.44519       -0.32553
C          0.36658       -3.08609       -1.04187
O          0.93363       -4.03046       -0.67956
C         -2.46373        2.33102        0.18411
C         -2.48743        3.47684       -0.61939
H         -2.11305        3.39896       -1.64181
C         -2.91723        2.40545        1.50288
H         -2.89154        1.53169        2.14893
C         -2.97283        4.67800       -0.11510
H         -2.97796        5.56520       -0.75327
C         -3.41980        3.61040        1.99108
H         -3.78747        3.65071        3.01914
C         -3.45005        4.75199        1.19389
H         -3.83790        5.69270        1.58999
H         -3.87420       -0.58841       -1.89151
H         -4.05127       -1.74664       -0.56989
C         -4.86627        0.22784       -0.17315
C         -5.44161       -0.04143        1.07513
H         -5.20826       -0.97152        1.59768
C         -5.23096        1.40727       -0.83149
H         -4.79587        1.61988       -1.81253
C         -6.32801        0.86482        1.65101
H         -6.77326        0.64295        2.62399
C         -6.11689        2.32956       -0.26911
C         -6.44661        3.60634       -0.98372
H         -5.68007        4.36894       -0.76993
H         -6.47274        3.46357       -2.07393
H         -7.41841        4.00953       -0.66483
C         -6.65732        2.04484        0.98990
H         -7.35293        2.75188        1.44976
H         -1.19067       -0.25790        1.88041
H         -2.97207       -0.39770        1.95724
C         -1.93273       -2.27303        1.79241
C         -3.04900       -3.11728        1.77596
H         -4.04206       -2.71175        1.57028
C         -0.68097       -2.82445        2.08082
H          0.19031       -2.16573        2.09244
C         -2.90643       -4.47741        2.03632
H         -3.78466       -5.12760        2.02520
C         -0.51973       -4.18699        2.35080
C          0.83913       -4.75980        2.62659
H          1.47977       -4.04246        3.15941
H          0.77499       -5.68028        3.22462
H          1.34001       -5.01046        1.67710
C         -1.65181       -5.00857        2.32125
H         -1.54721       -6.07682        2.52991
C          2.56330       -0.66136        1.53030
C          3.18094        0.32140        2.30675
H          2.80250        1.34281        2.27138
C          3.02017       -1.98169        1.56653
H          2.50680       -2.74665        0.98079
C          4.27569       -0.01915        3.09636
H          4.76002        0.75380        3.69814
C          4.12330       -2.30757        2.35503
H          4.48123       -3.33974        2.37450
C          4.75917       -1.32867        3.11772
H          5.62257       -1.58718        3.73465
H          3.14229       -1.80903       -1.07901
H          2.62593       -1.12409       -2.60828
C          4.12242        0.04776       -1.61173
C          4.35300        0.86227       -2.72930
H          3.66956        0.81770       -3.58198
C          5.03596        0.09157       -0.55510
H          4.88852       -0.55953        0.30772
C          5.45521        1.71177       -2.76811
H          5.62956        2.33724       -3.64690
C          6.14017        0.94932       -0.57027
C          7.06033        1.00842        0.61313
H          6.60334        1.59822        1.42507
H          7.25380        0.00516        1.02028
H          8.02268        1.47488        0.35896
C          6.33973        1.76196       -1.69199
H          7.20353        2.43159       -1.72740
H          1.78181        1.71772       -2.14234
H          0.17992        1.75047       -1.36460
C          1.76967        2.43702       -0.09981
C          0.93894        2.75542        0.98088
H         -0.07675        2.36238        1.01276
C          3.06881        2.95515       -0.12258
H          3.72616        2.71637       -0.96080
C          1.40374        3.56883        2.01030
H          0.74246        3.81151        2.84567
C          3.55297        3.77042        0.90598
C          4.94451        4.33225        0.84972
H          5.54562        3.82792        0.08088
H          4.92772        5.40849        0.61071
H          5.46023        4.22545        1.81652
C          2.70376        4.06879        1.97853
H          3.06452        4.70371        2.79290
