106
Cat449.ts34.5.log	Energy: -1871912.0002913
C         -0.71582       -0.40190       -3.40639
H         -0.27513       -1.20363       -4.00626
H         -1.80904       -0.37544       -3.43819
C         -0.00940        0.84770       -3.35707
H          0.96082        0.94037       -3.85456
H         -0.59527        1.76870       -3.44024
H         -0.05423        1.26166       -1.83419
Ir         0.18237       -0.34618       -1.45508
C         -2.09680        1.43962        0.63912
C         -3.39581       -0.48903       -1.28686
C         -2.20596       -1.57256        0.96155
C          2.47807       -1.33272        0.90788
C          3.45969        0.87880       -0.77202
C          1.73947        1.53583        1.34629
P          1.92563        0.21145        0.05347
P         -1.88367       -0.17683       -0.23053
C          0.89507       -2.07545       -1.66645
O          1.33694       -3.12893       -1.86339
C         -2.07222        1.64061        2.03390
O         -2.03868        0.54811        2.82044
C         -2.50958        0.64173        4.13537
H         -1.79395        1.15826        4.79922
H         -3.47904        1.16707        4.17947
H         -2.64579       -0.38929        4.48888
C         -2.15212        2.59537       -0.17239
O         -2.20349        2.36997       -1.50211
C         -2.37546        3.44700       -2.37993
H         -2.48304        3.01621       -3.38327
H         -1.50571        4.12641       -2.36809
H         -3.28474        4.02578       -2.14175
C         -2.19582        3.88088        0.36940
H         -2.24233        4.75654       -0.27597
C         -2.11945        2.92814        2.58417
H         -2.08620        3.06188        3.66430
C         -2.17716        4.03433        1.75117
H         -2.20268        5.03671        2.18424
C         -3.24155       -1.71502       -1.96259
H         -2.31184       -2.27261       -1.81678
C         -4.59415        0.23260       -1.47583
C         -4.97893        1.51755       -0.79517
H         -4.78511        2.38403       -1.44539
H         -4.44647        1.68986        0.14319
H         -6.05708        1.51463       -0.57799
C         -4.20858       -2.22621       -2.81464
H         -4.04314       -3.18336       -3.31426
C         -5.55287       -0.29637       -2.35943
H         -6.48064        0.26519       -2.50433
C         -5.37860       -1.49965       -3.02689
H         -6.15469       -1.87275       -3.69955
C         -1.23838       -2.57906        0.98106
H         -0.33769       -2.43483        0.38410
C         -3.39520       -1.75446        1.70545
C         -4.54274       -0.79184        1.68901
H         -5.19999       -0.99443        0.82827
H         -4.21415        0.24949        1.60295
H         -5.14811       -0.89075        2.60174
C         -1.40122       -3.74605        1.72464
H         -0.62060       -4.51004        1.70588
C         -3.53009       -2.91983        2.46907
H         -4.44482       -3.05588        3.05364
C         -2.55332       -3.91368        2.48418
H         -2.70287       -4.81780        3.08006
C          1.77840       -1.86146        2.01198
O          0.77391       -1.11585        2.49671
C          0.26125       -1.39744        3.76991
H         -0.28698       -0.50402        4.07707
H         -0.42822       -2.25742        3.74365
H          1.07076       -1.59284        4.49356
C          3.43419       -2.17151        0.28926
O          3.98351       -1.71222       -0.84249
C          4.78169       -2.54211       -1.63662
H          5.03667       -1.95247       -2.52645
H          4.23114       -3.44723       -1.94310
H          5.71438       -2.83163       -1.12207
C          3.76046       -3.42248        0.82461
H          4.51048       -4.04755        0.34261
C          2.10421       -3.11196        2.55394
H          1.55509       -3.49806        3.41117
C          3.10042       -3.87446        1.95956
H          3.35004       -4.85395        2.37419
C          3.38221        1.03705       -2.15792
H          2.46565        0.69827       -2.64333
C          4.65192        1.23505       -0.10427
C          4.88456        1.04349        1.36516
H          4.45421        0.10026        1.72810
H          4.43078        1.85475        1.95445
H          5.96238        1.03342        1.58063
C          4.43112        1.57220       -2.89869
H          4.33599        1.68400       -3.98161
C          5.69775        1.77159       -0.86766
H          6.62557        2.04428       -0.35651
C          5.59858        1.95264       -2.24381
H          6.43803        2.37618       -2.80106
C          2.01959        1.29175        2.69752
H          2.40671        0.32130        2.99610
C          1.36938        2.84840        0.96462
C          1.17494        3.27911       -0.45615
H          0.92315        4.34705       -0.50170
H          0.36729        2.70828       -0.93395
H          2.07966        3.10720       -1.05822
C          1.86784        2.27054        3.67344
H          2.10088        2.03667        4.71525
C          1.22086        3.81945        1.96464
H          0.92192        4.82629        1.66256
C          1.44517        3.54464        3.30718
H          1.31493        4.32796        4.05800
