100
Cat426.ts34.5.log	Energy: -1822726.2384276
C          0.28962       -2.45239       -2.67707
H          0.49485       -3.49754       -2.42950
H         -0.63313       -2.30262       -3.24655
C          1.42311       -1.61804       -2.97522
H          2.43534       -2.00611       -2.83093
H          1.34630       -0.92592       -3.82204
H          1.13924       -0.27631       -2.17810
Ir         0.55388       -1.21810       -0.91708
C         -1.72910        1.37824       -1.95913
O         -2.89989       -0.84238       -1.36175
O         -1.73776        0.40483        0.58997
C          1.09105        0.41500        2.18264
O          3.22422       -0.54072        1.02012
O          2.11252        1.53183       -0.08235
P          1.74470        0.03580        0.53529
P         -1.45064       -0.12164       -0.95751
C          0.55294       -2.66540        0.31428
O          0.52584       -3.52274        1.08769
C         -0.71291        2.34171       -1.93759
H          0.21339        2.14448       -1.39019
C         -2.90015        1.61505       -2.68119
H         -3.68211        0.85405       -2.68442
C         -0.90111        3.54702       -2.60590
H         -0.12379        4.31483       -2.57692
C         -3.08888        2.81614       -3.37522
C         -4.34338        3.04645       -4.16681
H         -4.29251        2.53383       -5.14170
H         -5.22600        2.65393       -3.64037
H         -4.50751        4.11538       -4.36381
C         -2.07837        3.78171       -3.31703
H         -2.21398        4.73223       -3.84062
C         -3.46922       -1.90897       -0.71256
C         -2.76964       -3.09668       -0.50977
H         -1.74954       -3.17596       -0.88243
C         -4.80184       -1.76204       -0.29208
C         -5.56497       -0.50622       -0.58059
H         -5.03875        0.38422       -0.20738
H         -5.70020       -0.36913       -1.66578
H         -6.55925       -0.53875       -0.11544
C         -3.37503       -4.14899        0.17349
H         -2.81482       -5.07063        0.34569
C         -5.38438       -2.83735        0.38488
H         -6.41767       -2.73823        0.72854
C         -4.68320       -4.01694        0.63157
H         -5.16413       -4.83479        1.17273
C         -2.83912        0.97874        1.15846
C         -3.32028        2.22128        0.74696
H         -2.83344        2.74224       -0.07711
C         -3.40343        0.29306        2.24841
C         -2.81519       -1.00490        2.70358
H         -2.92046       -1.78473        1.93400
H         -1.73760       -0.89545        2.89710
H         -3.30637       -1.35767        3.62022
C         -4.41692        2.78398        1.39919
H         -4.79833        3.75429        1.07308
C         -4.49835        0.88478        2.88312
H         -4.95410        0.36591        3.73080
C         -5.01255        2.11263        2.46401
H         -5.87195        2.54837        2.97852
C          1.26107       -0.48834        3.23568
H          1.87652       -1.37919        3.10211
C          0.30131        1.55532        2.35732
H          0.16898        2.25166        1.52572
C          0.64035       -0.23316        4.45660
H          0.77285       -0.92976        5.28778
C         -0.33412        1.81465        3.57382
C         -1.22149        3.01260        3.74004
H         -0.96452        3.80515        3.02345
H         -2.27498        2.73967        3.56179
H         -1.15212        3.42759        4.75630
C         -0.14816        0.90294        4.62158
H         -0.63474        1.08836        5.58319
C          4.04654       -1.23348        0.16565
C          4.44839       -0.67556       -1.04608
H          4.10618        0.32466       -1.31375
C          4.48062       -2.50336        0.57007
C          4.03416       -3.07739        1.87925
H          4.19985       -2.36451        2.70102
H          2.95804       -3.31233        1.86308
H          4.57739       -4.00446        2.10679
C          5.28973       -1.39399       -1.89234
H          5.60499       -0.95523       -2.84179
C          5.32891       -3.19951       -0.29601
H          5.67909       -4.19193        0.00066
C          5.72883       -2.66179       -1.51843
H          6.39029       -3.23187       -2.17453
C          3.12937        2.37733        0.29334
C          3.63644        2.43394        1.59055
H          3.23561        1.77882        2.36293
C          3.63918        3.19531       -0.72892
C          3.08562        3.10793       -2.11847
H          3.71810        3.65756       -2.82859
H          2.99968        2.06390       -2.45586
H          2.07000        3.53012       -2.17283
C          4.66206        3.32912        1.88662
H          5.05814        3.37062        2.90375
C          4.66583        4.08347       -0.39890
H          5.07455        4.72572       -1.18386
C          5.17826        4.15812        0.89480
H          5.98414        4.85854        1.12432
