108
Cat400.ts34.5.log	Energy: -1732565.6504116
C         -0.42119        2.09888       -2.97202
H         -0.10612        1.72929       -3.95218
H         -1.38391        2.61439       -2.98833
C          0.59972        2.64246       -2.11338
H          1.65003        2.59534       -2.41719
H          0.37411        3.56738       -1.56726
H          0.28447        2.04664       -0.70732
Ir        -0.05558        0.59659       -1.46593
C         -2.71712        2.21938        0.25724
C         -3.57257       -0.37646       -0.80769
C         -1.76363       -0.30082        1.40271
C          1.34724       -2.05993        0.62032
C          3.06665       -0.52560       -1.13493
C          2.06373        0.62994        1.48590
P          1.56062       -0.32609       -0.04088
P         -2.06232        0.55646       -0.21291
C          0.15675       -0.76157       -2.75960
O          0.31420       -1.56600       -3.57907
C         -2.40729        2.72819        1.53047
H         -1.94748        2.07927        2.27689
C         -3.35464        3.07538       -0.67117
C         -3.79431        2.62840       -2.03681
H         -4.80257        2.18343       -1.99935
H         -3.11655        1.87994       -2.46626
H         -3.84282        3.48103       -2.72851
C         -2.68622        4.04306        1.88709
H         -2.42850        4.39904        2.88724
C         -3.62636        4.39634       -0.29258
H         -4.11488        5.05454       -1.01675
C         -3.29554        4.88980        0.96512
H         -3.51923        5.92719        1.22441
H         -4.30684       -0.37079        0.00970
H         -4.00303        0.19060       -1.63803
C         -3.27474       -1.78366       -1.22954
C         -3.34282       -2.81723       -0.28722
H         -3.61553       -2.57725        0.74384
C         -2.95778       -2.08771       -2.56965
C         -2.97078       -1.02838       -3.63296
H         -2.35886       -0.16093       -3.34478
H         -3.99830       -0.67040       -3.81751
H         -2.57560       -1.41743       -4.58049
C         -3.09553       -4.13892       -0.64642
H         -3.16541       -4.92937        0.10469
C         -2.68667       -3.41780       -2.90762
H         -2.42638       -3.65403       -3.94258
C         -2.75630       -4.43960       -1.96341
H         -2.55330       -5.47143       -2.26167
H         -1.26638       -1.22303        1.06702
H         -0.95240        0.26568        1.89271
C         -2.84636       -0.64956        2.39222
C         -4.04847        0.05933        2.49439
H         -4.22568        0.91323        1.83974
C         -2.62712       -1.74472        3.26011
C         -1.35332       -2.53585        3.20495
H         -0.46738       -1.90026        3.36123
H         -1.21146       -3.02307        2.22626
H         -1.34253       -3.32084        3.97311
C         -5.02942       -0.29837        3.41733
H         -5.95836        0.27419        3.46956
C         -3.62202       -2.09018        4.17999
H         -3.44891       -2.93935        4.84703
C         -4.81803       -1.38135        4.26377
H         -5.57942       -1.67540        4.99010
C          0.48277       -2.82709       -0.17759
H         -0.06085       -2.33364       -0.98582
C          1.99251       -2.69439        1.71618
C          2.93192       -2.04563        2.69810
H          2.42368       -1.30922        3.33684
H          3.77561       -1.54678        2.20241
H          3.35726       -2.81098        3.36065
C          0.27929       -4.18720        0.03424
H         -0.39117       -4.73562       -0.62740
C          1.74705       -4.05984        1.92342
H          2.24135       -4.54839        2.76732
C          0.91959       -4.81148        1.09638
H          0.77312       -5.87665        1.29089
H          2.70748       -1.28664       -1.84642
H          3.09385        0.41306       -1.70144
C          4.41500       -0.89904       -0.60535
C          4.66300       -2.21122       -0.18049
H          3.85794       -2.94710       -0.24214
C          5.46966        0.03928       -0.58979
C          5.29723        1.42626       -1.14359
H          4.43030        1.95228       -0.71598
H          5.14924        1.39813       -2.23585
H          6.18795        2.03869       -0.94705
C          5.90700       -2.59020        0.31382
H          6.07198       -3.61804        0.64555
C          6.71527       -0.35958       -0.08910
H          7.53207        0.36737       -0.07061
C          6.93730       -1.65418        0.37210
H          7.91988       -1.93543        0.75837
H          1.29255        0.33485        2.21621
H          3.00339        0.19681        1.83265
C          2.17788        2.12645        1.45146
C          1.02807        2.91167        1.30535
H          0.05939        2.42066        1.22761
C          3.41514        2.77203        1.66636
C          4.65159        2.02296        2.07725
H          4.83827        1.11662        1.48774
H          4.57368        1.70843        3.13197
H          5.54238        2.66078        1.99312
C          1.08411        4.30058        1.26333
H          0.16117        4.87353        1.14368
C          3.46035        4.17142        1.60134
H          4.42167        4.67086        1.75072
C          2.31775        4.93550        1.38311
H          2.38884        6.02493        1.33865
