80
Cat589.ts34.5.log	Energy: -2157074.8698079
C         -0.24626       -3.77627       -0.67055
H          0.35554       -4.46070       -0.06654
H         -1.31914       -3.99439       -0.65813
C          0.33921       -3.29262       -1.89250
H          1.37792       -3.53569       -2.13476
H         -0.29969       -3.24611       -2.78198
H          0.05752       -1.72792       -1.91214
Ir         0.31895       -1.73525       -0.24515
O         -2.40274        0.12838       -1.01608
C         -3.12689       -2.20926        0.14275
C         -2.10273       -0.03929        1.70487
O          2.22012        0.75476        0.91398
C          2.94952        0.08538       -1.64589
C          0.67858        1.70578       -1.06545
P          1.51853        0.18497       -0.51061
P         -1.80344       -0.95124        0.14741
C          1.26896       -2.20700        1.32372
O          1.82520       -2.47156        2.30214
C         -3.36325        1.06626       -0.77652
C         -4.69664        0.81849       -1.10775
H         -4.97397       -0.14502       -1.53640
C         -3.00194        2.29591       -0.22090
H         -1.95810        2.47462        0.03880
C         -5.66577        1.79283       -0.87989
H         -6.71073        1.60826       -1.13413
C         -3.96463        3.27091        0.00891
H         -3.68826        4.23100        0.44717
C         -5.29557        3.01333       -0.31859
Cl        -6.50193        4.22543       -0.02650
C         -3.41365       -2.95888        1.29036
C         -3.72690       -2.56494       -1.07189
C         -4.91954       -4.36017        0.01963
C         -4.62332       -3.63013       -1.13093
C         -4.30831       -4.02479        1.22782
H         -2.93269       -2.70671        2.23901
H         -4.53023       -4.59812        2.13115
H         -5.62157       -5.19598       -0.02634
H         -5.09053       -3.89429       -2.08288
H         -3.48089       -2.00029       -1.97483
C         -1.01059        0.52575        2.37248
C         -3.39735        0.18271        2.19776
C         -2.49836        1.53168        3.98663
C         -3.59227        0.96340        3.33307
C         -1.20863        1.31037        3.50710
H          0.00046        0.34750        1.99840
H         -0.34753        1.74573        4.01942
H         -2.65353        2.14662        4.87666
H         -4.60490        1.13485        3.70532
H         -4.25918       -0.24964        1.68496
C          3.56270        0.89730        1.12901
C          4.26623        1.97159        0.58176
H          3.74407        2.69650       -0.04411
C          4.22115       -0.03547        1.93078
H          3.65574       -0.86853        2.35124
C          5.62890        2.10919        0.82551
H          6.18943        2.94119        0.39676
C          5.58293        0.10256        2.18187
H          6.10823       -0.62129        2.80686
C          6.28225        1.17129        1.62319
Cl         7.98182        1.33703        1.92327
C          3.72346       -1.08072       -1.60218
C          3.32066        1.12707       -2.50383
C          5.23359       -0.15181       -3.23911
C          4.45539        1.00313       -3.30263
C          4.86780       -1.19320       -2.38629
H          3.40930       -1.89765       -0.94540
H          5.47402       -2.10064       -2.33670
H          6.12730       -0.24302       -3.86117
H          4.73628        1.81689       -3.97543
H          2.72044        2.03853       -2.54883
C         -0.08356        1.65855       -2.23902
C          0.78642        2.90830       -0.35987
C         -0.57139        4.01484       -2.02538
C          0.16167        4.05984       -0.84142
C         -0.69726        2.81071       -2.72006
H         -0.20629        0.71012       -2.76729
H         -1.29189        2.76625       -3.63508
H         -1.06318        4.91541       -2.40021
H          0.24801        4.99576       -0.28420
H          1.35607        2.93519        0.57080
