90
Cat514.ts34.5.log	Energy: -2971785.0145269
C         -0.50811        0.68336       -4.13924
H         -0.07361        0.19023       -5.01264
H         -1.60034        0.67806       -4.11803
C          0.17431        1.83556       -3.62261
H          1.13736        2.12983       -4.04756
H         -0.43844        2.68249       -3.28903
H          0.23477        1.60453       -2.05481
Ir         0.50243       -0.02599       -2.35594
O         -2.77083        0.32020       -1.34057
O         -1.99166       -2.03403       -1.46818
O         -1.23443       -0.61965        0.46323
O          2.01083       -0.63141        0.65218
O          3.57469       -0.66739       -1.35197
O          2.75941        1.45989       -0.35610
P          2.16495        0.01007       -0.86377
P         -1.35677       -0.54754       -1.18447
C          1.24211       -1.52508       -3.28024
O          1.67152       -2.44435       -3.81858
C         -2.80794        1.65351       -1.64864
C         -3.55785        2.05109       -2.75611
H         -4.08106        1.29017       -3.33872
C         -2.13564        2.60785       -0.88666
H         -1.56760        2.30674       -0.00575
C         -3.62246        3.39566       -3.10353
H         -4.21030        3.69298       -3.97628
C         -2.20640        3.95112       -1.25297
H         -1.67768        4.69259       -0.64787
C         -2.94368        4.37368       -2.36336
C         -3.03673        5.82505       -2.73433
H         -4.00356        6.25246       -2.42087
H         -2.95652        5.96910       -3.82227
H         -2.24453        6.41583       -2.25321
C         -3.01150       -2.56134       -0.71320
C         -4.33315       -2.39898       -1.12342
H         -4.54272       -1.84509       -2.03904
C         -2.70934       -3.25357        0.45810
H         -1.66713       -3.35154        0.76264
C         -5.36437       -2.93199       -0.35428
H         -6.40533       -2.81398       -0.65902
C         -3.73770       -3.78492        1.22952
H         -3.51816       -4.32032        2.15458
C         -5.06117       -3.61890        0.82128
Cl        -6.34379       -4.27239        1.78550
C         -1.86825        0.12342        1.41890
C         -1.08795        0.96471        2.21300
H         -0.01363        1.01879        2.03009
C         -3.24676        0.04070        1.61876
H         -3.84965       -0.61821        0.99411
C         -1.68360        1.73179        3.20974
H         -1.08905        2.40677        3.82665
C         -3.84400        0.80984        2.61272
H         -4.92122        0.75798        2.77755
C         -3.06201        1.65213        3.40195
Cl        -3.81160        2.61452        4.63313
C          1.49315       -1.85745        0.97090
C          1.00867       -2.02182        2.26637
H          1.03181       -1.17394        2.95230
C          1.46836       -2.92841        0.07672
H          1.85775       -2.81872       -0.93577
C          0.49576       -3.25258        2.66113
H          0.11538       -3.36671        3.67973
C          0.94709       -4.15289        0.48846
H          0.92785       -4.98155       -0.22447
C          0.45005       -4.34241        1.78258
C         -0.13878       -5.65992        2.19688
H         -0.29716       -5.70652        3.28346
H          0.51233       -6.50038        1.91243
H         -1.11370       -5.83042        1.70983
C          4.68789       -0.73704       -0.54073
C          4.93451       -1.89542        0.19209
H          4.23038       -2.72728        0.14053
C          5.57144        0.33935       -0.48757
H          5.35408        1.23623       -1.06813
C          6.07383       -1.98014        0.98695
H          6.28044       -2.88051        1.56728
C          6.71112        0.25769        0.30629
H          7.41372        1.09073        0.35852
C          6.95565       -0.90171        1.04196
Cl         8.37217       -1.00308        2.03410
C          2.20861        2.22213        0.63804
C          2.58878        2.00423        1.96293
H          3.29669        1.20504        2.18542
C          1.30750        3.23598        0.31621
H          1.03264        3.39766       -0.72701
C          2.05763        2.79893        2.97340
H          2.34400        2.64092        4.01433
C          0.77080        4.02923        1.32702
H          0.05988        4.82410        1.09692
C          1.14611        3.80415        2.64980
Cl         0.46092        4.77444        3.91175
