96
Cat532.ts34.5.log	Energy: -1992190.9097452
C         -1.03345       -3.73632       -0.33683
H         -0.59533       -4.54153        0.25886
H         -2.11686       -3.63427       -0.21967
C         -0.44816       -3.47562       -1.62115
H          0.44141       -4.02718       -1.93816
H         -1.11621       -3.23612       -2.45546
H         -0.15889       -1.85621       -1.72869
Ir         0.11820       -1.92260       -0.07566
O         -2.07277        0.43266       -1.05343
C         -3.29393       -1.31697        0.64296
C         -1.47765        0.69634        1.62329
O          2.16532        0.29850        1.17360
C          3.25009       -0.69516       -1.14195
C          1.15363        1.24708       -1.16474
P          1.67830       -0.27875       -0.33302
P         -1.69470       -0.52552        0.27824
C          1.11249       -2.63945        1.36855
O          1.75061       -3.03857        2.24845
C         -3.14962        1.16533       -1.43455
C         -3.02683        1.80312       -2.67586
H         -2.10143        1.66171       -3.23435
C         -4.33021        1.32493       -0.69931
H         -4.45709        0.82868        0.26176
C         -4.04974        2.60344       -3.17006
H         -3.95488        3.11033       -4.13220
C         -5.35954        2.12497       -1.19603
H         -6.28377        2.25962       -0.63110
C         -5.21070        2.75901       -2.42074
F         -6.19663        3.52972       -2.88850
C         -3.80073       -1.41532        1.94652
H         -3.26377       -0.94451        2.77385
C         -4.00165       -1.92848       -0.39655
H         -3.62597       -1.86051       -1.42149
C         -4.98388       -2.09322        2.19707
H         -5.39016       -2.17283        3.20714
C         -5.19652       -2.60437       -0.15871
H         -5.72878       -3.05629       -0.99580
C         -5.69555       -2.69124        1.14681
O         -6.83748       -3.32010        1.48335
C         -7.59153       -3.93712        0.47784
H         -7.02337       -4.73672       -0.02949
H         -8.46678       -4.38122        0.96851
H         -7.93731       -3.21204       -0.28006
C         -2.05462        1.97862        1.62800
H         -2.72927        2.28689        0.82996
C         -0.59422        0.37122        2.65596
H         -0.09946       -0.60204        2.64047
C         -1.74726        2.89387        2.62146
H         -2.17980        3.89632        2.62090
C         -0.28853        1.27617        3.67015
H          0.41851        0.98141        4.44535
C         -0.85675        2.55401        3.65214
O         -0.60425        3.51205        4.56154
C          0.31327        3.24333        5.58671
H          1.31424        3.00479        5.18647
H          0.37987        4.15391        6.19524
H         -0.02078        2.40904        6.22793
C          3.40799        0.79550        1.44079
C          3.66583        2.16421        1.34827
H          2.86837        2.84033        1.03803
C          4.41935       -0.08351        1.83588
H          4.19100       -1.14848        1.90790
C          4.93793        2.65342        1.63873
H          5.16675        3.71862        1.57220
C          5.69114        0.39999        2.12344
H          6.49906       -0.26753        2.42810
C          5.93608        1.76451        2.01689
F          7.15610        2.23114        2.28882
C          4.15507        0.28967       -1.57798
H          3.88870        1.34640       -1.50462
C          3.61605       -2.03713       -1.25445
H          2.90412       -2.79910       -0.92057
C          5.38741       -0.06457       -2.09612
H          6.10173        0.68850       -2.43340
C          4.85453       -2.40806       -1.77415
H          5.10825       -3.46561       -1.84788
C          5.75093       -1.41804       -2.19442
O          6.96819       -1.66596       -2.70598
C          7.39804       -2.99441       -2.82498
H          6.74503       -3.57768       -3.49747
H          8.40801       -2.96031       -3.25224
H          7.44135       -3.49990       -1.84449
C          1.12600        1.31808       -2.56562
H          1.56580        0.51356       -3.16125
C          0.58069        2.28471       -0.42950
H          0.58218        2.23871        0.66108
C          0.53299        2.39285       -3.20643
H          0.49975        2.45907       -4.29572
C         -0.03382        3.36329       -1.06276
H         -0.49592        4.14072       -0.45449
C         -0.07740        3.41281       -2.45944
O         -0.69606        4.37611       -3.16648
C         -1.44019        5.34328       -2.47590
H         -0.80212        5.96275       -1.82156
H         -1.89848        5.98830       -3.23605
H         -2.23866        4.88050       -1.87028
