110
Cat574.ts34.5.log	Energy: -1826950.9574926
C          1.21974        0.73636       -3.26873
H          1.26910        1.76349       -3.63949
H          2.20101        0.25224       -3.22973
C          0.08110       -0.05423       -3.66315
H         -0.72321        0.41250       -4.23821
H          0.25528       -1.09581       -3.95822
H         -0.44923       -0.75472       -2.33408
Ir        -0.03532        0.65826       -1.51312
O          1.12418       -0.44892        1.42941
C          1.91804       -2.28282       -0.48936
C          3.23464        0.23315       -0.30728
O         -2.44681        1.90641        0.48365
C         -3.49614        0.38894       -1.39152
C         -2.24521       -0.74537        0.98418
P         -1.99083        0.51928       -0.33978
P          1.53205       -0.45252       -0.22209
C         -0.04792        2.55251       -1.39231
O         -0.06632        3.70479       -1.35280
C          1.89215       -0.92603        2.45723
C          3.03993       -0.23559        2.85631
H          3.30481        0.69438        2.35177
C          1.46871       -2.07895        3.14448
C          0.17171       -2.75856        2.82456
H         -0.67353       -2.21734        3.28112
H         -0.03892       -2.80303        1.74854
H          0.15634       -3.78346        3.21923
C          3.82601       -0.72578        3.89477
H          4.72751       -0.18454        4.19043
C          2.28084       -2.54832        4.18373
H          1.97297       -3.45166        4.71740
C          3.45593       -1.89727        4.55156
H          4.07003       -2.29475        5.36255
H          1.35864       -2.80479        0.29952
H          1.42019       -2.53098       -1.43651
C          3.35299       -2.71740       -0.49508
C          4.00789       -2.99607        0.71155
H          3.44832       -2.93824        1.64748
C          4.07644       -2.81069       -1.70364
C          3.41915       -2.57106       -3.03265
H          2.98233       -1.56295       -3.10960
H          2.59764       -3.28364       -3.21357
H          4.14018       -2.68084       -3.85391
C          5.35806       -3.33070        0.74347
H          5.84213       -3.53564        1.70106
C          5.43370       -3.14726       -1.65308
H          5.99406       -3.21608       -2.58968
C          6.07975       -3.39870       -0.44548
H          7.14162       -3.65556       -0.43649
H          3.87895       -0.29442        0.41672
H          3.57938       -0.13049       -1.28776
C          3.39541        1.72252       -0.21885
C          2.53360        2.49954        0.56094
H          1.70233        2.02438        1.08298
C          4.44555        2.35078       -0.91997
C          5.39560        1.55741       -1.77147
H          4.87692        1.07871       -2.61963
H          5.88460        0.74973       -1.20364
H          6.18191        2.20132       -2.18885
C          2.68513        3.88028        0.65375
H          1.97878        4.45710        1.25463
C          4.58774        3.73783       -0.81379
H          5.40017        4.22755       -1.35820
C          3.71870        4.50290       -0.03831
H          3.84869        5.58633        0.01819
C         -1.69167        2.64905        1.34509
C         -0.71578        2.09267        2.16872
H         -0.47419        1.03334        2.09882
C         -1.97382        4.02578        1.38133
C         -2.98906        4.60553        0.44696
H         -2.69394        4.42845       -0.59927
H         -3.97907        4.14301        0.58405
H         -3.09034        5.68866        0.59848
C         -0.01447        2.90423        3.05985
H          0.75287        2.45824        3.69713
C         -1.25944        4.81286        2.28578
H         -1.46853        5.88550        2.32252
C         -0.28739        4.26703        3.12503
H          0.25678        4.90769        3.82246
H         -3.51740        1.36430       -1.90556
H         -3.22448       -0.35016       -2.15619
C         -4.81862        0.07377       -0.74980
C         -5.36496        0.95454        0.19379
H         -4.79904        1.84779        0.46245
C         -5.54040       -1.08537       -1.10768
C         -5.02606       -2.05619       -2.13074
H         -4.05285       -2.47904       -1.83898
H         -4.89744       -1.57706       -3.11502
H         -5.72501       -2.89363       -2.25782
C         -6.59816        0.70535        0.79029
H         -7.00087        1.40856        1.52302
C         -6.77772       -1.31902       -0.49598
H         -7.33675       -2.21733       -0.77180
C         -7.30972       -0.44051        0.44395
H         -8.27885       -0.65124        0.90244
H         -1.30596       -0.74210        1.55786
H         -3.03601       -0.34061        1.62817
C         -2.56516       -2.14379        0.53442
C         -1.75986       -2.77774       -0.41987
H         -0.92585       -2.22051       -0.85082
C         -3.64342       -2.85491        1.10299
C         -4.51776       -2.24680        2.15955
H         -5.00665       -1.32758        1.80329
H         -3.93847       -1.98455        3.05981
H         -5.30829       -2.94639        2.46238
C         -2.00688       -4.08502       -0.83201
H         -1.36138       -4.55276       -1.57935
C         -3.88133       -4.16501        0.67201
H         -4.72008       -4.71456        1.10791
C         -3.07954       -4.78295       -0.28500
H         -3.29230       -5.80808       -0.59732
