56
Cat585.ts34.5.log	Energy: -1864915.1507927
C          3.89068       -0.85439       -1.65476
H          3.78421       -0.70869       -2.73286
H          4.67056       -0.23841       -1.19864
C          3.66869       -2.18147       -1.14691
H          3.30891       -2.96270       -1.82163
H          4.35480       -2.56150       -0.38133
H          2.74148       -1.98548        0.12520
Ir         1.94799       -0.75711       -0.71067
O          1.48513        1.84528        1.46907
O          3.37431        0.48504        2.17542
O          3.68966        1.89076        0.18197
O         -1.30285       -1.08079       -0.84164
O         -0.36957       -2.97838        0.43627
O         -0.38792       -0.72386        1.57040
P         -0.02883       -1.39775        0.13089
P          2.61503        0.82736        0.76492
C          1.11024       -0.09729       -2.29718
O          0.61535        0.35469       -3.23139
C          0.36543        2.31751        0.86637
C         -0.78118        2.45379        1.65288
H         -0.73382        2.15619        2.70139
C          0.33552        2.68945       -0.47915
H          1.23590        2.60023       -1.08837
C         -1.95380        2.95360        1.10208
H         -2.85499        3.05900        1.70816
C         -0.84450        3.17252       -1.04105
H         -0.88040        3.44396       -2.09708
C         -1.98196        3.30179       -0.24885
Cl        -3.46851        3.86047       -0.95435
C          2.76179       -0.39807        3.08495
H          1.88397        0.06990        3.55905
H          2.43576       -1.32432        2.57976
H          3.50383       -0.64770        3.85520
C          4.22044        2.94180        0.97184
H          3.41467        3.55009        1.41110
H          4.84969        2.54229        1.78049
H          4.82751        3.56729        0.30459
C         -2.63775       -1.10824       -0.53358
C         -3.33930        0.09352       -0.59948
H         -2.80425        1.00170       -0.87423
C         -3.29425       -2.29660       -0.21308
H         -2.72904       -3.22846       -0.18784
C         -4.69883        0.12341       -0.30970
H         -5.24856        1.06486       -0.35495
C         -4.65515       -2.26904        0.08065
H         -5.18557       -3.18709        0.33875
C         -5.34963       -1.06004        0.03899
Cl        -7.04185       -1.03160        0.41347
C          0.55364       -3.78581        1.12845
H          1.54460       -3.76189        0.64477
H          0.66439       -3.46841        2.17983
H          0.17030       -4.81467        1.10689
C         -1.47572       -1.05424        2.41385
H         -2.34811       -0.42605        2.18066
H         -1.75966       -2.11233        2.31353
H         -1.15740       -0.86022        3.44841
