110
Cat521.ts34.5.log	Energy: -1826949.0013887
C         -1.65514       -2.80490       -2.92921
H         -1.27106       -3.82600       -2.99844
H         -2.73183       -2.75928       -2.73977
C         -1.08074       -1.82400       -3.81586
H         -0.23555       -2.10202       -4.45139
H         -1.75669       -1.11568       -4.30829
H         -0.77210       -0.53343       -2.91132
Ir        -0.35812       -1.61059       -1.68320
O         -1.95512        0.97532       -0.37099
C         -3.76794       -1.11789       -0.75093
C         -1.87678       -1.06665        1.47605
O          1.49532       -0.19195        0.64950
C          2.96969       -0.63130       -1.72513
C          1.06079        1.60810       -1.38159
P          1.30597       -0.19472       -1.01688
P         -2.00120       -0.70969       -0.34067
C          0.66892       -3.08902       -1.10169
O          1.34461       -3.95623       -0.73297
C         -2.76302        1.96292        0.11093
C         -3.08926        2.99281       -0.77360
H         -2.72235        2.93322       -1.80007
C         -3.18705        2.04159        1.43805
H         -2.90853        1.26974        2.15304
C         -3.86703        4.06307       -0.34560
H         -4.11000        4.86214       -1.05208
C         -3.98336        3.10803        1.84447
H         -4.32841        3.14103        2.88146
C         -4.34763        4.13413        0.96673
C         -5.25009        5.24842        1.40848
H         -5.09678        6.15653        0.80754
H         -5.08751        5.50711        2.46513
H         -6.31039        4.96063        1.30356
H         -3.84158       -0.96890       -1.83911
H         -3.81382       -2.20683       -0.58483
C         -4.87920       -0.39520       -0.04965
C         -5.30730       -0.75686        1.23520
H         -4.86267       -1.61526        1.74188
C         -5.51300        0.68160       -0.67783
H         -5.19677        0.96459       -1.68605
C         -6.30952       -0.03313        1.87404
H         -6.63145       -0.32390        2.87699
C         -6.52498        1.41766       -0.05447
C         -7.17978        2.56220       -0.77018
H         -6.42986        3.30026       -1.09365
H         -7.71048        2.21664       -1.67175
H         -7.90936        3.07488       -0.12764
C         -6.90883        1.05211        1.23959
H         -7.69441        1.61713        1.74846
H         -1.04389       -0.43027        1.81195
H         -2.79653       -0.73753        1.98102
C         -1.58030       -2.50803        1.76956
C         -2.58153       -3.48551        1.73103
H         -3.61436       -3.20993        1.50815
C         -0.27346       -2.90362        2.06942
H          0.50958       -2.14253        2.09505
C         -2.27315       -4.81950        1.98365
H         -3.06329       -5.57385        1.95448
C          0.05458       -4.23796        2.32745
C          1.47308       -4.64027        2.60400
H          2.02607       -3.84438        3.12319
H          1.52226       -5.55393        3.21397
H          1.99564       -4.84319        1.65454
C         -0.96565       -5.19388        2.27921
H         -0.73090       -6.24315        2.47821
C          2.63497       -0.36354        1.37945
C          3.15392        0.70675        2.11028
H          2.65789        1.67585        2.06156
C          3.24587       -1.61599        1.45186
H          2.81425       -2.45984        0.91000
C          4.29978        0.52268        2.87553
H          4.69781        1.37022        3.44134
C          4.40073       -1.77945        2.21674
H          4.87538       -2.76367        2.25742
C          4.95643       -0.71521        2.93368
C          6.21920       -0.87960        3.72849
H          7.06672       -0.37471        3.23529
H          6.48792       -1.93895        3.84426
H          6.12280       -0.44121        4.73353
H          3.28315       -1.54502       -1.19792
H          2.68282       -0.95689       -2.73643
C          4.07406        0.37964       -1.79950
C          4.20021        1.18692       -2.93892
H          3.50324        1.05980       -3.77209
C          5.00397        0.53434       -0.76760
H          4.93562       -0.10415        0.11451
C          5.21005        2.14166       -3.01989
H          5.29678        2.76781       -3.91116
C          6.02297        1.49003       -0.83094
C          7.00109        1.61739        0.30042
H          6.48132        1.60361        1.27042
H          7.71105        0.77388        0.30403
H          7.58604        2.54526        0.22941
C          6.11068        2.30043       -1.96783
H          6.89801        3.05636       -2.03303
H          1.56049        1.79391       -2.34486
H         -0.02322        1.69330       -1.53489
C          1.51238        2.57377       -0.32503
C          0.65856        2.86902        0.74574
H         -0.32348        2.39887        0.79282
C          2.76628        3.18913       -0.37297
H          3.43780        2.97341       -1.20575
C          1.05921        3.75812        1.73795
H          0.37972        3.98851        2.56216
C          3.18996        4.07458        0.62468
C          4.56315        4.67888        0.57076
H          5.29915        4.01677        1.05663
H          4.89856        4.82138       -0.46640
H          4.59982        5.64925        1.08699
C          2.31843        4.35479        1.68261
H          2.62733        5.05159        2.46700
