96
Cat549.ts34.5.log	Energy: -1992285.2490293
C          1.69911       -3.64166        0.62939
H          1.79399       -4.43760       -0.11381
H          2.65835       -3.27171        1.00256
C          0.58638       -3.70959        1.53593
H         -0.18441       -4.47167        1.39636
H          0.75454       -3.46565        2.59145
H          0.03921       -2.21562        1.57625
Ir         0.30982       -2.14172       -0.07511
O          1.18662        0.72067        1.40935
O          3.21940       -0.38044        0.53239
O          1.58205        0.65790       -1.15466
O         -2.63117       -1.49882       -1.53569
O         -2.80057       -1.41063        0.94070
O         -1.59400        0.49934       -0.27048
P         -1.68332       -1.14499       -0.25458
P          1.58916       -0.30107        0.18252
C          0.34310       -2.81186       -1.86787
O          0.42014       -3.18951       -2.95132
C          1.68208        1.98795        1.61224
C          0.95562        3.08018        1.14269
H          0.00655        2.91107        0.63220
C          2.88772        2.16581        2.28760
H          3.42834        1.29131        2.65052
C          1.47122        4.36348        1.29122
H          0.94253        5.23603        0.90472
C          3.40335        3.44925        2.44262
H          4.35489        3.62445        2.94759
C          2.69722        4.52771        1.92418
F          3.21859        5.75227        2.02931
C          4.06734       -1.23506       -0.12338
C          3.87680       -1.58867       -1.45741
H          3.04152       -1.16539       -2.01822
C          5.14269       -1.74831        0.60384
H          5.26750       -1.45413        1.64742
C          4.74319       -2.49520       -2.08041
C          4.50534       -2.88117       -3.51120
H          4.70672       -2.03353       -4.18620
H          5.15151       -3.71540       -3.81745
H          3.45730       -3.17820       -3.67074
C          6.01592       -2.63224       -0.01975
H          6.85978       -3.04130        0.54102
C          5.81439       -3.01294       -1.34725
H          6.49907       -3.72099       -1.82063
C          2.16801        1.84884       -1.50499
C          3.39645        2.28365       -1.00788
H          3.94677        1.66017       -0.30516
C          1.46586        2.61802       -2.43151
H          0.53263        2.22621       -2.83894
C          3.89939        3.53504       -1.37466
C          5.17579        4.04567       -0.77185
H          4.95903        4.79102        0.01113
H          5.75529        3.23531       -0.30832
H          5.80922        4.53718       -1.52533
C          1.97700        3.85450       -2.81550
H          1.42909        4.46273       -3.53943
C          3.17560        4.31928       -2.28161
H          3.56176        5.29832       -2.57640
C         -3.84676       -0.89971       -1.79441
C         -3.90141        0.14562       -2.71333
H         -2.98746        0.45534       -3.22182
C         -4.99456       -1.33296       -1.13485
H         -4.92355       -2.16122       -0.43014
C         -5.10343        0.81081       -2.93044
H         -5.17100        1.65629       -3.61645
C         -6.20015       -0.67231       -1.35216
H         -7.11450       -0.97196       -0.83715
C         -6.23268        0.40274       -2.23140
F         -7.37797        1.06778       -2.39837
C         -2.47274       -1.41966        2.27382
C         -1.58742       -0.48874        2.81173
H         -1.12415        0.26107        2.16849
C         -3.05772       -2.39936        3.07547
H         -3.74049       -3.12069        2.62366
C         -1.25409       -0.53277        4.17073
C         -0.26890        0.45756        4.71866
H          0.68455        0.39884        4.17117
H         -0.63654        1.48911        4.60085
H         -0.07080        0.28563        5.78557
C         -2.74249       -2.43235        4.42994
H         -3.19485       -3.19394        5.06962
C         -1.84430       -1.51296        4.97402
H         -1.59616       -1.55907        6.03738
C         -2.52299        1.51182       -0.30147
C         -3.74626        1.45228        0.36553
H         -4.00895        0.56348        0.93706
C         -2.16247        2.64570       -1.02778
H         -1.19178        2.66893       -1.52431
C         -4.65550        2.50821        0.25823
C         -6.01285        2.40647        0.89038
H         -6.04342        1.62041        1.65751
H         -6.31440        3.35691        1.35514
H         -6.77038        2.15916        0.12826
C         -3.05565        3.71065       -1.10937
H         -2.77888        4.60194       -1.67782
C         -4.29694        3.64097       -0.48364
H         -4.99910        4.47420       -0.56855
