98
Cat566.ts34.5.log	Energy: -1728351.6779671
C         -1.69161        1.77037       -2.49150
H         -1.64473        1.41806       -3.52595
H         -2.71238        1.92948       -2.12885
C         -0.65861        2.67543       -2.06163
H          0.16809        2.90088       -2.74129
H         -0.94294        3.53651       -1.44434
H         -0.21533        2.14309       -0.65228
Ir        -0.38791        0.57863       -1.24767
O         -2.13044        1.26419        1.68918
C         -3.69066        0.01901       -0.08596
C         -1.79242       -1.35766        1.40646
O          1.69931       -0.94974        1.02513
C          2.99104       -0.53910       -1.32370
C          2.51061        1.48329        0.55035
P          1.62889        0.10857       -0.27581
P         -1.93513        0.17330        0.42085
C         -0.30314       -0.85434       -2.47956
O         -0.29084       -1.74764       -3.21402
C         -1.39471        2.40926        1.80435
C         -0.16972        2.37500        2.46599
H          0.20774        1.41655        2.82771
C         -1.91192        3.60789        1.28643
C         -3.23181        3.61751        0.57905
H         -3.48565        4.62760        0.22974
H         -3.23248        2.94250       -0.29105
H         -4.04014        3.26285        1.23667
C          0.56036        3.54744        2.63770
H          1.52475        3.51372        3.14681
C         -1.15530        4.77044        1.46423
H         -1.54304        5.71420        1.07011
C          0.06791        4.74837        2.13362
H          0.63718        5.67208        2.26147
C         -4.72643        0.29814        0.81472
H         -4.48812        0.64733        1.82124
C         -3.99370       -0.43424       -1.36974
H         -3.17479       -0.63410       -2.06727
C         -6.04611        0.12793        0.41286
H         -6.85945        0.34954        1.10852
C         -5.31966       -0.62400       -1.78091
C         -5.61734       -1.12452       -3.16460
H         -6.69750       -1.13697       -3.36660
H         -5.13490       -0.49477       -3.92834
H         -5.23606       -2.14860       -3.30573
C         -6.33991       -0.33070       -0.87261
H         -7.38232       -0.46131       -1.17632
C         -1.68235       -1.33989        2.79740
H         -1.64990       -0.38613        3.32672
C         -1.85410       -2.57903        0.72797
H         -1.91995       -2.58530       -0.36457
C         -1.63548       -2.54743        3.49360
H         -1.53748       -2.54135        4.58221
C         -1.84521       -3.79185        1.41754
C         -2.00533       -5.09206        0.68724
H         -3.06707       -5.38953        0.65302
H         -1.64728       -5.01546       -0.34875
H         -1.44878       -5.90122        1.18073
C         -1.72146       -3.75741        2.81310
H         -1.69058       -4.69758        3.37044
C          1.56903       -2.30495        0.99214
C          1.36107       -3.03315       -0.17997
H          1.25750       -2.52352       -1.13654
C          1.69780       -2.95352        2.23253
C          1.91911       -2.15001        3.47594
H          2.92035       -1.68732        3.48128
H          1.18676       -1.33293        3.55052
H          1.83355       -2.77987        4.37188
C          1.30444       -4.42405       -0.12907
H          1.15152       -4.98428       -1.05435
C          1.62799       -4.34715        2.25209
H          1.72524       -4.86016        3.21293
C          1.44327       -5.08784        1.08570
H          1.40306       -6.17848        1.12871
C          2.95327       -0.35756       -2.70655
H          2.08928        0.13817       -3.15659
C          4.09137       -1.17188       -0.73553
H          4.12071       -1.30770        0.34868
C          4.01371       -0.81165       -3.48900
H          3.98996       -0.66824       -4.57191
C          5.15195       -1.64602       -1.50966
C          6.29886       -2.37405       -0.87144
H          6.50669       -1.99042        0.13796
H          6.07073       -3.44835       -0.77131
H          7.21742       -2.28617       -1.46927
C          5.09813       -1.45178       -2.89661
H          5.92243       -1.81053       -3.51950
C          3.22062        1.30602        1.74225
H          3.19039        0.34296        2.25181
C          2.53712        2.72268       -0.08972
H          1.97404        2.85627       -1.01707
C          3.95194        2.36793        2.26796
H          4.50981        2.23296        3.19808
C          3.25927        3.79925        0.43362
C          3.22165        5.13631       -0.24558
H          3.33322        5.03774       -1.33573
H          2.25433        5.63269       -0.06070
H          4.01559        5.80159        0.12195
C          3.97455        3.60152        1.61915
H          4.55021        4.42865        2.04385
