118
Cat509.ts34.5.log	Energy: -2204196.9230080
C         -1.45336       -1.89190       -2.75212
H         -1.07928       -2.89915       -2.95473
H         -2.54532       -1.81272       -2.74637
C         -0.68425       -0.79071       -3.26387
H          0.26285       -0.98623       -3.77659
H         -1.23855        0.05082       -3.70084
H         -0.43697        0.20816       -2.12032
Ir        -0.40157       -1.08772       -1.04324
O         -2.80139        1.36207       -0.45300
C         -3.77527       -1.11751       -0.45687
C         -2.53213        0.00202        1.83819
O          2.13490       -0.96226        1.11571
C          3.16754       -0.54227       -1.31095
C          1.53851        1.56258       -0.01306
P          1.62633       -0.24547       -0.30136
P         -2.27052       -0.17057        0.00974
C         -0.13025       -2.72367       -0.16149
O          0.01533       -3.71413        0.42352
C         -2.04496        2.48038       -0.39823
C         -1.30583        2.88882       -1.44369
H         -1.30525        2.28768       -2.35491
C         -2.17382        3.29981        0.81263
H         -2.88573        2.96173        1.56587
C         -0.43030        4.09424       -1.36466
H         -0.56973        4.73121       -2.25655
C         -1.48934        4.43957        0.96755
H         -1.63838        5.05174        1.86324
C         -0.47392        4.90839       -0.02604
C         -0.57473        6.40797       -0.25062
H          0.18962        6.75401       -0.96528
H         -0.42631        6.95791        0.69313
H         -1.56390        6.67935       -0.65178
C         -3.96931       -2.33996        0.21335
O         -3.03214       -2.63852        1.13165
C         -3.05086       -3.86827        1.79351
H         -2.14732       -3.89413        2.41445
H         -3.94186       -3.97315        2.43729
H         -3.01350       -4.71176        1.08317
C         -4.63251       -0.81159       -1.52937
O         -4.33357        0.27396       -2.26954
C         -5.15839        0.63116       -3.33560
H         -4.72731        1.54317       -3.76881
H         -6.19032        0.84960       -3.00689
H         -5.19476       -0.15197       -4.11461
C         -5.72273       -1.64381       -1.82818
H         -6.40160       -1.39498       -2.64275
C         -5.04775       -3.17930       -0.08356
H         -5.19691       -4.11095        0.46098
C         -5.92582       -2.80749       -1.09556
H         -6.77589       -3.45085       -1.33510
C         -3.68946        0.64853        2.32637
O         -4.63185        0.95970        1.42063
C         -5.80562        1.60081        1.81682
H         -6.40634        1.73117        0.90768
H         -6.38081        0.99939        2.54294
H         -5.60630        2.59447        2.25689
C         -1.59675       -0.46609        2.78593
O         -0.60739       -1.23864        2.33573
C          0.27317       -1.85111        3.23328
H          0.88846       -2.53001        2.63587
H         -0.27416       -2.42529        4.00184
H          0.93680       -1.12015        3.72201
C         -1.73973       -0.15900        4.14952
H         -0.99385       -0.49133        4.86975
C         -3.84043        0.94675        3.68771
H         -4.72570        1.46744        4.05017
C         -2.84978        0.55414        4.57994
H         -2.95814        0.79097        5.64146
C          3.40181       -0.96688        1.60044
C          4.22853        0.15811        1.60295
H          3.87904        1.09126        1.16042
C          3.87406       -2.16857        2.13360
H          3.22736       -3.04671        2.08697
C          5.50750        0.07045        2.14660
H          6.14752        0.95790        2.13651
C          5.15105       -2.23535        2.68083
H          5.50675       -3.18514        3.09113
C          5.99401       -1.11761        2.70265
C          7.36171       -1.18863        3.31905
H          7.82668       -2.17286        3.15788
H          7.32010       -1.02438        4.40939
H          8.03278       -0.42449        2.90008
C          4.12311        0.39888       -1.75669
O          4.04892        1.65589       -1.27351
C          5.06977        2.57064       -1.53683
H          4.82118        3.47881       -0.97122
H          6.05269        2.19555       -1.20197
H          5.13737        2.82897       -2.60907
C          3.39198       -1.89148       -1.67700
O          2.60870       -2.79885       -1.08047
C          2.65465       -4.14205       -1.47268
H          1.88016       -4.65367       -0.88964
H          3.63718       -4.59402       -1.25159
H          2.43572       -4.25848       -2.54779
C          4.39865       -2.25823       -2.57941
H          4.53084       -3.29928       -2.86953
C          5.13845        0.03596       -2.65214
H          5.85184        0.77782       -3.00765
C          5.25272       -1.28281       -3.07174
H          6.04423       -1.55934       -3.77238
C          1.40983        2.32555       -1.12082
O          1.45987        1.69618       -2.31248
C          1.66104        2.40362       -3.50281
H          1.67000        1.65533       -4.30549
H          0.85294        3.12808       -3.70152
H          2.62926        2.93232       -3.50543
C          1.36606        2.19822        1.30428
O          1.44405        1.33352        2.33507
C          1.31569        1.83619        3.63083
H          1.42729        0.98440        4.31323
H          0.32470        2.29637        3.78812
H          2.10144        2.57943        3.85574
C          1.17774        3.52643        1.44955
H          1.07554        3.96141        2.44303
C          1.08236        3.77598       -1.10413
H          1.74577        4.32084       -1.79337
C          1.00031        4.44159        0.28963
H          1.67070        5.31292        0.38800
