52
Cat581.ts34.5.log	Energy: -1676179.1783161
C         -4.35803        1.29731       -0.14106
H         -5.17012        0.89002        0.46734
H         -4.18819        2.36704        0.01858
C         -4.22441        0.78748       -1.48379
H         -4.85139       -0.04816       -1.80594
H         -4.03556        1.50296       -2.29220
H         -2.65198        0.54465       -1.66739
Ir        -2.63870       -0.00282       -0.07714
O          0.23646        1.59905       -0.55357
C         -1.53181        3.36803        0.54344
C         -0.31346        1.38259        2.13799
O          0.27853       -1.44326        0.37071
C         -1.47339       -3.31927       -0.54602
C         -0.33918       -1.38062       -2.30430
P         -1.07198       -1.54481       -0.64635
P         -1.09467        1.59258        0.50211
C         -3.34394       -1.11822        1.28684
O         -3.73250       -1.81495        2.12409
C          1.39020        2.28736       -0.33740
C          2.42189        1.71967        0.41685
H          2.27549        0.73337        0.85881
C          1.57380        3.54258       -0.92385
H          0.76949        3.96719       -1.52738
C          3.62234        2.40174        0.58892
H          4.43206        1.96219        1.17362
C          2.77263        4.22927       -0.75482
H          2.92409        5.20795       -1.21304
C          3.79206        3.65657        0.00470
Cl         5.28617        4.50816        0.21742
H         -2.31939        3.50671        1.29900
H         -0.66943        4.00095        0.80218
H         -1.93294        3.67164       -0.43419
H          0.46353        2.13083        2.35538
H         -1.12103        1.46067        2.88090
H          0.10160        0.36694        2.18888
C          1.41201       -2.18549        0.23104
C          2.44707       -1.74515       -0.59935
H          2.32328       -0.81647       -1.15826
C          1.57126       -3.35812        0.97408
H          0.76458       -3.67945        1.63551
C          3.62746       -2.47613       -0.69481
H          4.44101       -2.13642       -1.33776
C          2.74953       -4.09267        0.88163
H          2.88245       -5.00779        1.46088
C          3.77251       -3.65011        0.04344
Cl         5.24043       -4.56227       -0.07427
H         -0.60508       -3.95805       -0.76759
H         -1.85828       -3.54365        0.45894
H         -2.27486       -3.52191       -1.27104
H          0.05688       -0.35934       -2.39393
H          0.45130       -2.12024       -2.49776
H         -1.15104       -1.50817       -3.03502
