80
Cat592.ts34.5.log	Energy: -3310364.3867163
C         -0.30420       -3.84800       -0.55797
H          0.17292       -4.55533        0.12562
H         -1.38352       -3.99379       -0.66950
C          0.45274       -3.43559       -1.70886
H          1.49299       -3.75447       -1.82134
H         -0.07138       -3.36640       -2.66893
H          0.28880       -1.85336       -1.78833
Ir         0.34428       -1.83721       -0.10260
O         -2.14681        0.14596       -1.24281
C         -3.15335       -2.07451       -0.07585
C         -2.15868        0.08404        1.50091
O          2.27011        0.53693        1.23961
C          3.21685       -0.19931       -1.22907
C          1.00281        1.56074       -0.88493
P          1.68860       -0.00378       -0.24749
P         -1.75197       -0.90906        0.02146
C          1.06917       -2.33792        1.57554
O          1.48859       -2.61911        2.61471
C         -3.06475        1.15404       -1.17948
C         -2.71849        2.37038       -0.58615
H         -1.73324        2.47829       -0.13253
C         -4.32927        0.99474       -1.74832
H         -4.59797        0.04258       -2.20671
C         -3.62111        3.42630       -0.56922
H         -3.34940        4.38126       -0.11753
C         -5.24096        2.04790       -1.72890
H         -6.23121        1.93399       -2.17274
C         -4.88278        3.25911       -1.13973
Cl        -6.01512        4.57078       -1.11839
C         -3.64574       -2.45246       -1.33096
H         -3.26536       -1.95760       -2.22796
C         -3.61903       -2.74435        1.06223
H         -3.22895       -2.48146        2.04886
C         -4.60673       -3.45205       -1.45050
H         -4.99661       -3.74252       -2.42746
C         -4.57752       -3.74710        0.95579
H         -4.94695       -4.26438        1.84268
C         -5.07163       -4.09243       -0.30230
Cl        -6.26716       -5.33526       -0.44060
C         -1.11574        0.57932        2.29092
H         -0.08460        0.29933        2.06163
C         -3.47841        0.43991        1.81710
H         -4.30767        0.06626        1.21241
C         -1.37487        1.42390        3.36616
H         -0.56146        1.80946        3.98259
C         -3.75125        1.27955        2.89025
H         -4.77607        1.56360        3.13344
C         -2.69328        1.77239        3.65564
Cl        -3.02489        2.82699        4.98502
C          3.59255        0.59137        1.58992
C          4.41147        1.62303        1.12873
H          3.99905        2.38689        0.46797
C          4.10900       -0.38863        2.43745
H          3.45385       -1.18552        2.79259
C          5.75031        1.67051        1.50369
H          6.40116        2.46864        1.14366
C          5.44640       -0.34089        2.81937
H          5.86181       -1.10189        3.48175
C          6.26324        0.68494        2.34577
Cl         7.93170        0.73738        2.80866
C          3.90336       -1.41449       -1.11845
H          3.47045       -2.21202       -0.50686
C          3.75000        0.81548       -2.03177
H          3.22532        1.76816       -2.13284
C          5.11274       -1.61000       -1.77454
H          5.65783       -2.55045       -1.68146
C          4.94957        0.62478       -2.70982
H          5.36739        1.40932       -3.34254
C          5.62844       -0.58549       -2.56925
Cl         7.12600       -0.82213       -3.39846
C          1.07198        2.74961       -0.15247
H          1.54155        2.74859        0.83283
C          0.37134        1.56193       -2.13492
H          0.27504        0.63046       -2.69760
C          0.53150        3.92883       -0.66275
H          0.57201        4.85688       -0.09031
C         -0.16260        2.73350       -2.65700
H         -0.66789        2.73718       -3.62359
C         -0.08301        3.91218       -1.91304
Cl        -0.80422        5.35719       -2.52791
