110
Cat516.ts34.5.log	Energy: -1826947.2110038
C         -1.40859       -0.92667       -3.59840
H         -1.18136       -1.88451       -4.07500
H         -2.48030       -0.70381       -3.57447
C         -0.50238        0.16881       -3.85683
H          0.41635       -0.01426       -4.42162
H         -0.93479        1.15028       -4.08513
H         -0.30453        0.85878       -2.44205
Ir        -0.27301       -0.68626       -1.78404
O         -1.55531        0.90330        0.85599
C         -3.54695        0.60508       -1.06980
C         -2.71833       -1.55498        0.68850
O          1.68943       -1.36606        0.67653
C          3.12100       -0.14452       -1.38802
C          1.54675        1.30705        0.68740
P          1.51080       -0.14397       -0.45006
P         -2.01223       -0.20230       -0.35711
C          0.41344       -2.45611       -1.81487
O          0.86939       -3.51864       -1.82958
C         -2.38462        1.68676        1.60325
C         -2.59629        3.01373        1.21454
H         -2.08719        3.39170        0.32626
C         -2.98479        1.21752        2.77345
H         -2.80908        0.19432        3.10464
C         -3.42881        3.83814        1.96400
H         -3.58641        4.87066        1.63985
C         -3.81601        2.05482        3.51436
H         -4.28699        1.66559        4.42109
C         -4.06409        3.37442        3.12365
C         -4.94927        4.27772        3.93224
H         -5.62589        4.85963        3.28832
H         -4.35371        5.00096        4.51367
H         -5.56334        3.70803        4.64387
H         -3.40755        1.68233       -0.89428
H         -3.45437        0.45392       -2.15488
C         -4.88664        0.15639       -0.56658
C         -5.51432        0.84995        0.47473
H         -5.03531        1.74061        0.88625
C         -5.51979       -0.98003       -1.11514
C         -4.92116       -1.72643       -2.27373
H         -3.86705       -1.99809       -2.10780
H         -4.94633       -1.11956       -3.19434
H         -5.47694       -2.65231       -2.47543
C         -6.73295        0.42469        0.99612
H         -7.19760        0.98291        1.81231
C         -6.74211       -1.39487       -0.57700
H         -7.23006       -2.27837       -0.99813
C         -7.34798       -0.70944        0.47348
H         -8.30170       -1.05883        0.87607
H         -3.36508       -1.09034        1.44785
H         -3.39013       -2.12599        0.03546
C         -1.66318       -2.43488        1.29143
C         -0.95222       -2.00795        2.41827
H         -1.17274       -1.02988        2.84948
C         -1.35214       -3.68291        0.71564
C         -2.09747       -4.19939       -0.48158
H         -2.05315       -3.48659       -1.31939
H         -3.16206       -4.37369       -0.25113
H         -1.66904       -5.14858       -0.82975
C          0.04851       -2.79026        2.98451
H          0.59362       -2.43264        3.86098
C         -0.33024       -4.44887        1.28566
H         -0.07670       -5.40872        0.82803
C          0.36793       -4.01602        2.40920
H          1.16678       -4.63188        2.82886
C          2.81861       -1.73699        1.33526
C          3.56189       -2.81358        0.84418
H          3.20866       -3.32693       -0.05276
C          3.20815       -1.11229        2.51986
H          2.59597       -0.30756        2.92910
C          4.71404       -3.22001        1.50878
H          5.29040       -4.06021        1.11131
C          4.36611       -1.52932        3.17303
H          4.66710       -1.02647        4.09617
C          5.14838       -2.57761        2.67675
C          6.41258       -3.00486        3.36470
H          7.30138       -2.71002        2.78280
H          6.45513       -4.09811        3.48619
H          6.50277       -2.54939        4.36087
H          3.42045       -1.20506       -1.36787
H          2.79976        0.05155       -2.41873
C          4.27092        0.74059       -1.00428
C          5.19641        0.32430       -0.03813
H          5.05870       -0.64099        0.45163
C          4.46797        1.97642       -1.65863
C          3.53811        2.45357       -2.73532
H          2.49476        2.49675       -2.38905
H          3.56495        1.78694       -3.61360
H          3.81516        3.46122       -3.07229
C          6.29641        1.10921        0.29759
H          7.00205        0.75823        1.05416
C          5.57767        2.75238       -1.30555
H          5.72793        3.71089       -1.80966
C          6.48753        2.33320       -0.33839
H          7.34492        2.96159       -0.08552
H          0.66415        1.12720        1.32233
H          2.44925        1.17586        1.29712
C          1.50139        2.68680        0.09456
C          0.47063        3.04289       -0.78341
H         -0.29090        2.29684       -1.01365
C          2.46936        3.65263        0.44309
C          3.53579        3.37013        1.46005
H          4.15208        2.50176        1.18607
H          3.09438        3.16246        2.44884
H          4.20913        4.23070        1.56911
C          0.41214        4.30708       -1.36400
H         -0.39784        4.55334       -2.05530
C          2.39940        4.91582       -0.15540
H          3.15615        5.66081        0.10539
C          1.39289        5.24677       -1.05923
H          1.36914        6.24124       -1.51144
