92
Cat593.ts34.5.log	Energy: -2255685.0381351
C         -0.28612       -3.81821       -0.63671
H          0.24392       -4.52253        0.01022
H         -1.36547       -3.99216       -0.69756
C          0.40132       -3.36764       -1.81792
H          1.44354       -3.65415       -1.98643
H         -0.17203       -3.30293       -2.74987
H          0.18083       -1.79192       -1.86466
Ir         0.33087       -1.79878       -0.18406
O         -2.27553        0.14905       -1.13688
C         -3.15558       -2.14202       -0.00918
C         -2.14675       -0.01020        1.59970
O          2.24241        0.62822        1.08714
C          3.09644       -0.06325       -1.42524
C          0.84502        1.62538       -0.97371
P          1.60712        0.08203       -0.38035
P         -1.78520       -0.94055        0.07093
C          1.16951       -2.29138        1.44008
O          1.65948       -2.56622        2.45111
C         -3.18596        1.14727       -0.97112
C         -2.80492        2.34003       -0.35032
H         -1.78924        2.43821        0.03301
C         -4.48748        1.00364       -1.45552
H         -4.78148        0.06767       -1.93179
C         -3.71390        3.38185       -0.21490
H         -3.42167        4.31211        0.27494
C         -5.40241        2.04642       -1.32538
H         -6.42087        1.94362       -1.70329
C         -5.01145        3.23048       -0.70400
Cl        -6.14718        4.53264       -0.54011
C         -3.71916       -2.47082       -1.24618
H         -3.41262       -1.91848       -2.13802
C         -3.52701       -2.88848        1.11643
H         -3.07857       -2.66606        2.08832
C         -4.65513       -3.49785       -1.34793
H         -5.08731       -3.73674       -2.32383
C         -4.45997       -3.91338        1.00614
H         -4.73965       -4.48113        1.89824
C         -5.04741       -4.23429       -0.22541
C         -6.07090       -5.32675       -0.32601
H         -5.75354       -6.22597        0.22356
H         -7.03358       -5.00699        0.10625
H         -6.25537       -5.61243       -1.37112
C         -3.45930        0.26989        2.00885
H         -4.30448       -0.13284        1.44612
C         -1.08514        0.52555        2.33449
H         -0.05729        0.31090        2.03194
C         -3.69531        1.07187        3.11798
H         -4.72543        1.28648        3.41565
C         -1.32980        1.33284        3.44249
H         -0.48488        1.74545        4.00047
C         -2.63535        1.62153        3.85283
C         -2.90201        2.47346        5.05811
H         -2.01218        3.04723        5.35259
H         -3.72475        3.18082        4.87483
H         -3.19595        1.85139        5.91981
C          3.57443        0.72913        1.37311
C          4.34039        1.77859        0.86213
H          3.87440        2.51910        0.21077
C          4.16094       -0.22323        2.20742
H          3.54741       -1.03643        2.59837
C          5.69339        1.87016        1.17211
H          6.30223        2.68180        0.77102
C          5.51264       -0.13098        2.52535
H          5.98177       -0.87114        3.17544
C          6.27459        0.91166        2.00047
Cl         7.96344        1.01862        2.38113
C          3.84265       -1.24503       -1.33251
H          3.46948       -2.05648       -0.70027
C          3.55347        0.96191       -2.25853
H          2.98095        1.88778       -2.35076
C          5.03374       -1.38168       -2.03334
H          5.61077       -2.30583       -1.93925
C          4.73836        0.80861       -2.97395
H          5.07957        1.61619       -3.62742
C          5.50491       -0.35632       -2.86524
C          6.80194       -0.50724       -3.60287
H          6.93495        0.28224       -4.35547
H          7.65430       -0.45293       -2.90585
H          6.86305       -1.48128       -4.11167
C          0.93290        2.82292       -0.25949
H          1.46014        2.84161        0.69614
C          0.14186        1.60627       -2.18446
H          0.03476        0.66832       -2.73439
C          0.33711        3.98228       -0.75644
H          0.40783        4.91013       -0.18198
C         -0.44130        2.76716       -2.67469
H         -0.99522        2.73281       -3.61654
C         -0.36088        3.97553       -1.96779
C         -1.06571        5.19985       -2.46811
H         -0.96890        5.30555       -3.55879
H         -2.14386        5.13626       -2.24222
H         -0.67905        6.11383       -1.99570
