92
Cat528.ts34.5.log	Energy: -1708567.9889649
C         -2.82584        0.14541       -2.54105
H         -2.92099       -0.29861       -3.53521
H         -3.70070       -0.01199       -1.90317
C         -2.11883        1.39288       -2.43359
H         -1.63081        1.81301       -3.31744
H         -2.52742        2.16161       -1.76637
H         -1.14460        1.20908       -1.18852
Ir        -0.90775       -0.37499       -1.68198
O         -2.84518       -0.19424        1.13669
O         -3.00167       -2.33629       -0.13417
O         -0.96868       -1.88805        1.35858
O          2.14629       -1.53085       -1.34011
O          2.20696        0.94365       -1.81894
O          1.53828        0.18393        0.46866
P          1.24615       -0.17141       -1.09346
P         -1.88159       -1.21001        0.18518
C         -0.53913       -1.70818       -3.00238
O         -0.33813       -2.52517       -3.78592
C         -2.63909        1.14653        1.22918
C         -3.74221        1.99226        1.08796
H         -4.72201        1.54954        0.89882
C         -1.36997        1.68592        1.46311
H         -0.50055        1.02971        1.54241
C         -3.58586        3.37259        1.18528
H         -4.43455        4.05061        1.07936
C         -1.21204        3.06660        1.55859
H         -0.23365        3.50985        1.74895
C         -2.31785        3.89411        1.41538
F         -2.15708        5.21638        1.49960
C         -3.62747       -3.22706        0.77914
H         -4.05396       -4.02262        0.14870
H         -2.86195       -3.69539        1.42030
C         -4.71828       -2.57421        1.60795
H         -5.18687       -3.36418        2.22182
H         -4.26882       -1.85496        2.31161
C         -5.77240       -1.86041        0.77455
H         -6.27327       -2.58873        0.11259
H         -5.26141       -1.14698        0.10863
C         -6.80166       -1.12949        1.62000
H         -7.33860       -1.81897        2.29159
H         -6.32157       -0.36474        2.25238
H         -7.55359       -0.62267        0.99613
C         -1.19630       -1.82329        2.76292
H         -1.33418       -0.77249        3.06892
H         -2.12062       -2.36327        3.02567
C         -0.00826       -2.43451        3.47013
H         -0.25170       -2.50419        4.54496
H          0.11654       -3.47131        3.11167
C          1.28398       -1.65770        3.26929
H          1.15787       -0.64126        3.68390
H          1.44214       -1.51900        2.18940
C          2.49271       -2.32400        3.90314
H          2.37186       -2.43485        4.99297
H          2.65335       -3.33292        3.48894
H          3.41293       -1.74646        3.72602
C          3.37815       -1.74511       -0.78175
C          3.47745       -2.61485        0.30413
H          2.57103       -3.09441        0.67698
C          4.51687       -1.12423       -1.29709
H          4.41286       -0.45091       -2.14837
C          4.71612       -2.85276        0.89325
H          4.82208       -3.52530        1.74614
C          5.75719       -1.35809       -0.70918
H          6.66492       -0.88491       -1.08799
C          5.84084       -2.21581        0.38166
F          7.02777       -2.43667        0.94699
C          1.68730        1.88565       -2.75234
H          2.49859        2.07714       -3.47209
H          0.84296        1.42401       -3.29305
C          1.24507        3.16688       -2.07660
H          0.77207        3.80839       -2.84124
H          0.44720        2.92361       -1.35210
C          2.36186        3.93124       -1.38058
H          3.12183        4.22453       -2.12615
H          2.87817        3.25248       -0.68247
C          1.86710        5.16095       -0.63671
H          1.39793        5.88387       -1.32305
H          1.10708        4.89582        0.11614
H          2.68650        5.67955       -0.11628
C          2.71873        0.78491        0.99868
H          3.25284        0.02095        1.58670
H          3.38170        1.10237        0.18067
C          2.33717        1.96859        1.85695
H          1.74960        2.66559        1.23722
H          1.66895        1.63001        2.66718
C          3.54136        2.69153        2.44045
H          4.21464        2.99575        1.61936
H          4.12548        1.99052        3.06222
C          3.15514        3.91160        3.26079
H          2.61005        4.64607        2.64615
H          2.50022        3.63608        4.10283
H          4.03862        4.41758        3.67780
