92
Cat551.ts34.5.log	Energy: -2052500.5328256
C          1.28231       -0.48502       -3.66607
H          1.18305        0.29344       -4.42733
H          2.31552       -0.82728       -3.53173
C          0.23161       -1.47286       -3.59053
H         -0.65702       -1.35720       -4.21738
H          0.51782       -2.52487       -3.47164
H         -0.06413       -1.62914       -2.04194
Ir         0.14794        0.03544       -1.90945
O          1.37494       -0.38233        1.16573
C          3.09753       -1.59842       -0.64987
C          3.03086        1.26590       -0.32700
O         -1.55413        1.59700        0.36865
C         -3.29083        0.22180       -1.33084
C         -1.79460       -1.03207        0.91868
P         -1.62822        0.15390       -0.48757
P          1.89062       -0.17609       -0.44761
C         -0.18539        1.83690       -2.42925
O         -0.40501        2.93799       -2.69494
C          2.17177       -0.67218        2.23356
C          2.20444       -1.98429        2.71612
H          1.59636       -2.74673        2.22489
C          2.90025        0.32616        2.88864
H          2.83645        1.35888        2.54332
C          2.99227       -2.30984        3.81740
H          3.03196       -3.32807        4.20829
C          3.69423        0.00440        3.98596
H          4.27545        0.76678        4.50765
C          3.73897       -1.31145        4.43243
F          4.49973       -1.61862        5.48104
H          2.76102       -2.37301        0.05611
H          2.88728       -1.98382       -1.65927
C          4.56224       -1.32174       -0.49513
C          5.32230       -0.92963       -1.60535
H          4.84624       -0.86820       -2.58845
C          5.20457       -1.40659        0.74718
H          4.64148       -1.71959        1.62827
C          6.67374       -0.61763       -1.48735
H          7.26953       -0.31376       -2.34986
C          6.55534       -1.09915        0.88306
H          7.05946       -1.16585        1.84883
C          7.27443       -0.70243       -0.23752
F          8.56635       -0.40374       -0.11305
H          3.73024        1.10741        0.51115
H          3.64686        1.20194       -1.23744
C          2.34156        2.59827       -0.26986
C          2.72989        3.62309       -1.14011
H          3.54267        3.44550       -1.84924
C          1.28243        2.84604        0.61296
H          0.92081        2.05159        1.26671
C          2.09393        4.86090       -1.13287
H          2.38619        5.65987       -1.81626
C          0.63269        4.07602        0.63111
H         -0.20857        4.26504        1.30016
C          1.04713        5.06975       -0.24496
F          0.42155        6.24715       -0.23949
C         -2.55270        2.20230        1.06425
C         -2.78708        1.88386        2.40513
H         -2.16705        1.13032        2.89280
C         -3.30352        3.20549        0.44400
H         -3.06645        3.48022       -0.58582
C         -3.80035        2.53024        3.10878
H         -4.00448        2.29693        4.15528
C         -4.31766        3.85391        1.14312
H         -4.91777        4.63820        0.67859
C         -4.56137        3.50013        2.46554
F         -5.53291        4.11499        3.13641
H         -3.48564        1.29881       -1.46189
H         -3.07403       -0.16711       -2.33461
C         -4.47893       -0.48635       -0.75189
C         -4.97451       -1.63168       -1.38828
H         -4.48342       -1.99511       -2.29433
C         -5.12895       -0.04433        0.40861
H         -4.78194        0.85580        0.91865
C         -6.07336       -2.32500       -0.88900
H         -6.46072       -3.21701       -1.38437
C         -6.22307       -0.73112        0.92849
H         -6.73241       -0.38943        1.83132
C         -6.68199       -1.86782        0.27283
F         -7.73028       -2.52583        0.76417
H         -0.90989       -0.79062        1.52795
H         -2.70065       -0.76082        1.47992
C         -1.81458       -2.48809        0.56370
C         -2.99722       -3.23203        0.64065
H         -3.91877       -2.74618        0.96747
C         -0.64182       -3.14698        0.16951
H          0.28730       -2.57953        0.12205
C         -3.02193       -4.58529        0.31375
H         -3.94253       -5.16862        0.37218
C         -0.64799       -4.49888       -0.16161
H          0.26168       -5.01804       -0.46940
C         -1.84505       -5.20145       -0.09165
F         -1.86057       -6.49558       -0.40896
