92
Cat535.ts34.5.log	Energy: -1803528.0513461
C         -0.45051       -3.69047       -0.58208
H          0.00570       -4.41913        0.09354
H         -1.53484       -3.79806       -0.68973
C          0.31552       -3.29616       -1.73470
H          1.34369       -3.64991       -1.85491
H         -0.21117       -3.20501       -2.69167
H          0.20089       -1.71007       -1.80350
Ir         0.27095       -1.70874       -0.11761
O         -2.16121        0.38177       -1.22124
C         -3.23035       -1.83364       -0.10104
C         -2.16752        0.26316        1.52152
O          2.26086        0.61676        1.22436
C          3.19963       -0.16622       -1.23300
C          1.03801        1.66294       -0.91906
P          1.67224        0.08588       -0.26554
P         -1.79607       -0.71264        0.02312
C          0.99194       -2.23426        1.55152
O          1.40944       -2.52864        2.58939
C         -3.03671        1.42186       -1.11063
C         -4.33152        1.31529       -1.62216
H         -4.65118        0.37867       -2.07991
C         -2.62122        2.61522       -0.51324
H         -1.61134        2.68116       -0.10809
C         -5.20799        2.39618       -1.53893
H         -6.22416        2.33602       -1.93289
C         -3.49167        3.69583       -0.42591
H         -3.18669        4.63225        0.04480
C         -4.77775        3.57289       -0.93988
F         -5.61653        4.60837       -0.85586
C         -3.74228       -2.16381       -1.36018
H         -3.35441       -1.65444       -2.24603
C         -3.70703       -2.52727        1.01856
H         -3.30123       -2.30501        2.00899
C         -4.72943       -3.13814       -1.49111
H         -5.11930       -3.37863       -2.48430
C         -4.69053       -3.50028        0.87933
H         -5.05195       -4.02706        1.76721
C         -5.22619       -3.82041       -0.37566
C         -6.30464       -4.85502       -0.50889
H         -6.07509       -5.75301        0.08459
H         -7.27122       -4.46694       -0.14689
H         -6.44206       -5.16281       -1.55500
C         -3.47675        0.63100        1.86725
H         -4.31954        0.27574        1.27015
C         -1.10884        0.73891        2.30047
H         -0.08399        0.45506        2.04934
C         -3.71142        1.45870        2.95764
H         -4.73837        1.74082        3.20604
C         -1.35169        1.57252        3.38931
H         -0.50831        1.93640        3.98245
C         -2.65332        1.94795        3.73653
C         -2.91976        2.82728        4.92211
H         -2.01026        3.34942        5.25071
H         -3.68930        3.58108        4.69750
H         -3.28782        2.23337        5.77519
C          3.58071        0.63754        1.58444
C          4.43383        1.64010        1.11905
H          4.04888        2.40332        0.44153
C          4.06129       -0.34592        2.45026
H          3.37940       -1.12075        2.80381
C          5.76933        1.65678        1.51080
H          6.45667        2.42639        1.15541
C          5.39509       -0.32909        2.84920
H          5.79459       -1.08670        3.52575
C          6.23445        0.66917        2.37021
F          7.51508        0.68156        2.74445
C          3.85293       -1.39907       -1.10880
H          3.39283       -2.17931       -0.49475
C          3.76830        0.82208       -2.04155
H          3.27012        1.78742       -2.15727
C          5.06006       -1.62426       -1.75724
H          5.56272       -2.58839       -1.63977
C          4.96956        0.58137       -2.70392
H          5.39883        1.36152       -3.33853
C          5.64108       -0.63771       -2.56654
C          6.94826       -0.89074       -3.25703
H          7.21951       -0.06358       -3.92743
H          7.76177       -1.01120       -2.52346
H          6.91241       -1.81600       -3.85287
C          1.15927        2.86332       -0.21482
H          1.63142        2.86352        0.76937
C          0.40379        1.66857       -2.16745
H          0.26889        0.73082       -2.71159
C          0.66719        4.04979       -0.75923
H          0.76354        4.98030       -0.19282
C         -0.07554        2.85577       -2.70476
H         -0.57550        2.84139       -3.67684
C          0.04204        4.06783       -2.00950
C         -0.54916        5.32703       -2.56748
H         -0.37017        5.41326       -3.64952
H         -1.64217        5.33295       -2.41745
H         -0.13976        6.22116       -2.07660
