92
Cat536.ts34.5.log	Energy: -1803527.5722426
C         -0.82033        1.69571       -2.60905
H         -0.15381        1.63382       -3.47233
H         -1.88264        1.56898       -2.83756
C         -0.45313        2.56164       -1.53482
H          0.50361        3.09134       -1.57771
H         -1.24371        3.13175       -1.03475
H         -0.36981        1.80073       -0.22287
Ir        -0.05107        0.35388       -1.05965
O         -3.36954        0.60194       -0.36208
C         -2.78417       -1.78176       -1.31197
C         -2.25704       -1.11221        1.45239
O          2.34340       -0.25919        1.39699
C          3.53175        0.19557       -0.99658
C          2.29386        2.25823        0.55698
P          1.99310        0.55530       -0.04964
P         -2.06461       -0.47391       -0.26025
C          0.34711       -1.13063       -2.13892
O          0.57828       -2.07249       -2.76385
C         -3.30261        1.88458        0.08010
C         -3.94253        2.86544       -0.68393
H         -4.46384        2.56559       -1.59472
C         -2.63526        2.24427        1.25494
H         -2.16520        1.47720        1.87058
C         -3.89656        4.19996       -0.29411
H         -4.38499        4.98067       -0.87984
C         -2.57236        3.58261        1.63792
H         -2.04277        3.88565        2.54275
C         -3.19903        4.54597        0.85873
F         -3.14005        5.82651        1.22665
C         -3.75812       -1.43308       -2.25644
H         -4.12827       -0.40770       -2.28188
C         -2.28933       -3.10217       -1.25969
C         -1.24787       -3.54264       -0.27346
H         -1.68904       -3.73515        0.71741
H         -0.46526       -2.78475       -0.12541
H         -0.76116       -4.46735       -0.61220
C         -4.26321       -2.37935       -3.14167
H         -5.02578       -2.09196       -3.86927
C         -2.81312       -4.03354       -2.16398
H         -2.43447       -5.05879       -2.13364
C         -3.78911       -3.68804       -3.09349
H         -4.17402       -4.44118       -3.78513
C         -1.08920       -1.14572        2.21986
H         -0.16071       -0.80598        1.75396
C         -3.47970       -1.56342        2.00207
C         -4.76723       -1.60285        1.23290
H         -4.71842       -2.34852        0.42400
H         -4.98488       -0.63932        0.75398
H         -5.60335       -1.87027        1.89317
C         -1.09759       -1.61212        3.53049
H         -0.17003       -1.64194        4.10475
C         -3.46535       -2.01640        3.32670
H         -4.40292       -2.36353        3.76950
C         -2.29753       -2.04429        4.08650
H         -2.32932       -2.41063        5.11562
C          2.32758       -1.60486        1.54762
C          2.39703       -2.08616        2.86098
H          2.46445       -1.36478        3.67764
C          2.26484       -2.51134        0.48435
H          2.23940       -2.16036       -0.54627
C          2.38015       -3.45248        3.11465
H          2.43073       -3.84248        4.13282
C          2.24326       -3.88210        0.73843
H          2.18900       -4.60051       -0.08131
C          2.29379       -4.33924        2.04668
F          2.26999       -5.65188        2.28721
C          3.39140        0.03345       -2.37985
H          2.39238        0.12800       -2.81139
C          4.81882        0.12377       -0.41004
C          5.09185        0.32025        1.05350
H          4.84405       -0.58475        1.62931
H          4.49977        1.14092        1.47936
H          6.15733        0.53802        1.21090
C          4.48630       -0.22510       -3.19898
H          4.34719       -0.35015       -4.27493
C          5.90373       -0.13992       -1.25530
H          6.90306       -0.19835       -0.81534
C          5.75071       -0.32003       -2.62757
H          6.62559       -0.52496       -3.24947
C          3.03765        3.10426       -0.27724
H          3.50476        2.69497       -1.17600
C          1.68371        2.78120        1.71915
C          0.86404        1.94571        2.65622
H          1.49568        1.24379        3.21906
H          0.13601        1.33509        2.10468
H          0.32189        2.57976        3.37120
C          3.19301        4.45559        0.01857
H          3.77705        5.09518       -0.64695
C          1.85924        4.14216        1.99619
H          1.39210        4.55523        2.89447
C          2.60039        4.97710        1.16443
H          2.71023        6.03547        1.41220
