102
Cat511.ts34.5.log	Energy: -1917096.6094968
C          1.35652       -4.07323        0.74919
H          1.31665       -4.86481       -0.00353
H          2.35952       -3.88299        1.14201
C          0.22952       -3.94777        1.63324
H         -0.65998       -4.56133        1.46765
H          0.42398       -3.75982        2.69567
H         -0.10203       -2.39138        1.67576
Ir         0.28493       -2.33391        0.04197
O          2.31091       -0.05788        1.74075
O          3.49312       -1.57785        0.17745
O          2.01243        0.34296       -0.76600
O         -1.83422       -0.58114       -1.78804
O         -2.90820       -1.51693        0.34974
O         -1.38799        0.49213        0.49799
P         -1.46851       -0.97212       -0.23578
P          2.00972       -0.90177        0.32620
C          0.15018       -2.99349       -1.74467
O          0.06580       -3.37346       -2.82693
C          1.28838        0.58694        2.39499
C          0.61478       -0.05996        3.42797
H          0.91206       -1.07353        3.70260
C          0.93675        1.88867        2.04074
H          1.45591        2.38733        1.22174
C         -0.41766        0.59718        4.09457
H         -0.94106        0.08419        4.90665
C         -0.09427        2.53108        2.71521
H         -0.37349        3.54457        2.41527
C         -0.79853        1.89705        3.74528
C         -1.93920        2.59369        4.42719
H         -2.79606        2.69954        3.74162
H         -1.65627        3.60638        4.75315
H         -2.28375        2.03722        5.31057
C          4.74141       -1.00314        0.27576
C          5.25257       -0.59235        1.50295
H          4.64890       -0.71339        2.40212
C          5.50318       -0.87713       -0.88411
H          5.08555       -1.22069       -1.83155
C          6.51256        0.00134        1.54927
H          6.90595        0.33664        2.51301
C          6.75639       -0.28209       -0.81921
H          7.33867       -0.16646       -1.73758
C          7.27971        0.18320        0.39450
C          8.60999        0.87743        0.44086
H          9.35404        0.36928       -0.19108
H          9.00740        0.92254        1.46478
H          8.52672        1.91432        0.07332
C          3.04154        1.17270       -1.14553
C          3.29567        1.28088       -2.51047
H          2.67895        0.70817       -3.20576
C          3.80143        1.90540       -0.23244
H          3.61038        1.81291        0.83547
C          4.33683        2.09048       -2.95716
H          4.53522        2.16019       -4.03033
C          4.84319        2.70050       -0.69658
H          5.45008        3.24840        0.02944
C          5.14032        2.80261       -2.06082
C          6.30632        3.62053       -2.53444
H          6.22999        3.85303       -3.60616
H          7.25436        3.07739       -2.38141
H          6.38511        4.57018       -1.98405
C         -3.08859       -0.47719       -2.34215
C         -3.63316        0.77600       -2.60882
H         -3.06897        1.67467       -2.35815
C         -3.79288       -1.63623       -2.66371
H         -3.34372       -2.60831       -2.45342
C         -4.90195        0.85963       -3.17714
H         -5.32887        1.84685       -3.37395
C         -5.06058       -1.53329       -3.22787
H         -5.61278       -2.44637       -3.46673
C         -5.64203       -0.28593       -3.49144
C         -6.99990       -0.18541       -4.12398
H         -7.66575       -0.99095       -3.78086
H         -6.93181       -0.26534       -5.22192
H         -7.48090        0.77649       -3.89538
C         -3.83081       -0.78849        1.06371
C         -5.02431       -0.39525        0.46460
H         -5.21246       -0.64619       -0.57975
C         -3.57509       -0.47291        2.39743
H         -2.62689       -0.77321        2.84555
C         -5.95304        0.33171        1.20643
H         -6.88296        0.64724        0.72552
C         -4.51424        0.25244        3.12306
H         -4.30206        0.50384        4.16563
C         -5.71839        0.67344        2.54295
C         -6.73297        1.43910        3.34198
H         -6.25094        2.13139        4.04828
H         -7.36639        0.75857        3.93537
H         -7.40002        2.02370        2.69232
C         -1.66236        1.72649       -0.03119
C         -2.77648        2.43224        0.41279
H         -3.44433        1.97761        1.14536
C         -0.79625        2.28505       -0.97025
H          0.07625        1.71457       -1.29296
C         -3.02641        3.70282       -0.10178
H         -3.90777        4.25041        0.24340
C         -1.06533        3.55281       -1.47584
H         -0.38591        3.98241       -2.21733
C         -2.18329        4.28630       -1.05441
C         -2.44734        5.66318       -1.59199
H         -1.77693        6.40626       -1.12879
H         -3.48029        5.98231       -1.39301
H         -2.27933        5.71057       -2.67849
