80
Cat587.ts34.5.log	Energy: -2062144.9583532
C          1.19982       -2.04882        2.99559
H          1.90425       -1.65479        3.73328
H          0.17589       -2.16072        3.36470
C          1.69363       -3.03595        2.07419
H          2.75899       -3.27898        2.05770
H          1.05311       -3.89513        1.84723
H          1.08981       -2.57000        0.64416
Ir         1.42449       -0.99924        1.11549
O         -1.33253       -0.32282       -0.57451
O         -1.81003       -1.73348        1.50276
O         -1.48425        0.70202        1.76962
O          1.40301        0.58507       -1.89045
O          3.70093       -0.22337       -1.14645
O          2.02129       -1.77266       -2.10364
P          2.14569       -0.61264       -0.98191
P         -0.79959       -0.56649        0.99470
C          2.60845        0.29513        1.85892
O          3.30821        1.09287        2.31111
C         -2.64000       -0.26028       -0.95596
C         -3.19118       -1.34066       -1.64730
H         -2.57230       -2.22079       -1.82825
C         -3.41271        0.87688       -0.70920
H         -2.96991        1.71183       -0.16799
C         -4.50933       -1.29113       -2.09035
H         -4.94815       -2.13045       -2.63221
C         -4.73365        0.92778       -1.14432
H         -5.34700        1.81010       -0.95460
C         -5.27756       -0.15652       -1.83224
Cl        -6.92191       -0.09182       -2.37536
C         -3.08348       -1.56108        2.15463
H         -3.51018       -0.59525        1.84269
C         -2.87110       -1.55314        3.65441
H         -2.20673       -0.72784        3.94439
H         -2.42007       -2.50256        3.98271
H         -3.82984       -1.42617        4.17944
C         -3.97721       -2.68770        1.68540
H         -4.11171       -2.64715        0.59590
H         -3.53714       -3.66138        1.94999
H         -4.96697       -2.61207        2.15964
C         -0.71862        1.84530        2.19038
H          0.15124        1.94273        1.51864
C         -0.23238        1.62946        3.60829
H          0.36422        0.70876        3.67141
H         -1.08420        1.55032        4.30182
H          0.40025        2.47070        3.92816
C         -1.60867        3.06030        2.05282
H         -1.92913        3.19957        1.01180
H         -2.50127        2.95812        2.68921
H         -1.06551        3.96837        2.35077
C          1.07840        1.81364       -1.41184
C         -0.13959        2.36708       -1.81384
H         -0.79308        1.78520       -2.46483
C          1.92567        2.53567       -0.56726
H          2.88256        2.11175       -0.26088
C         -0.50901        3.63416       -1.37886
H         -1.45813        4.07312       -1.69140
C          1.54957        3.79860       -0.11543
H          2.20173        4.36002        0.55528
C          0.33440        4.34254       -0.52218
Cl        -0.14845        5.90482        0.05811
C          4.31803       -0.02161       -2.43669
H          3.51971        0.07140       -3.19123
C          5.17066       -1.23306       -2.74802
H          4.54706       -2.13686       -2.77155
H          5.94825       -1.36037       -1.97954
H          5.66139       -1.11730       -3.72621
C          5.10041        1.27147       -2.36752
H          4.43459        2.12413       -2.17248
H          5.85023        1.22191       -1.56330
H          5.62129        1.45401       -3.31919
C          0.79156       -2.47835       -2.33605
H          0.12356       -2.29509       -1.47663
C          1.12729       -3.95176       -2.39948
H          1.59183       -4.27961       -1.45820
H          1.83260       -4.15125       -3.22099
H          0.21862       -4.54863       -2.56833
C          0.14606       -1.93779       -3.59468
H         -0.06901       -0.86706       -3.48032
H          0.81550       -2.07211       -4.45824
H         -0.79719       -2.46530       -3.80189
