106
Cat554.ts34.5.log	Energy: -1543232.8607197
C         -0.86335       -2.59588       -2.64033
H         -0.61951       -3.65991       -2.57546
H         -1.93088       -2.40430       -2.78992
C          0.07487       -1.75165       -3.34233
H          1.02429       -2.17148       -3.68634
H         -0.32531       -1.00942       -4.04331
H          0.21216       -0.45808       -2.42725
Ir         0.16041       -1.49134       -1.09890
O         -1.40966        1.34227       -0.32138
C         -3.29939       -0.61396       -1.03377
C         -1.98507       -0.55517        1.53499
O          1.27818        0.14435        1.51674
C          3.41356       -0.90157        0.12509
C          2.00774        1.44461       -0.82634
P          1.73133       -0.20092       -0.06694
P         -1.64969       -0.34207       -0.25660
C          0.74769       -3.03038       -0.16537
O          1.10633       -3.94549        0.44724
C         -2.37395        2.30250       -0.37333
C         -2.96714        2.78536        0.79475
H         -2.65373        2.37433        1.75555
C         -2.70671        2.83864       -1.62967
C         -1.98561        2.37264       -2.85848
H         -2.24643        2.99179       -3.72746
H         -0.89587        2.40988       -2.70853
H         -2.22163        1.32560       -3.10569
C         -3.95022        3.76927        0.72113
H         -4.41995        4.13665        1.63653
C         -3.69729        3.82368       -1.67595
H         -3.97318        4.24674       -2.64594
C         -4.32747        4.28071       -0.51889
H         -5.10023        5.04963       -0.58602
H         -3.22982       -0.19898       -2.05302
H         -3.32326       -1.70892       -1.17324
C         -4.57698       -0.14846       -0.34717
H         -4.66603       -0.63218        0.64052
H         -4.53951        0.93391       -0.15526
C         -5.82126       -0.45942       -1.16804
H         -5.88001       -1.54700       -1.35793
H         -5.72601        0.01397       -2.16241
C         -7.10911        0.01434       -0.50903
H         -7.20030       -0.45621        0.48612
H         -7.03451        1.09987       -0.31987
C         -8.35342       -0.28024       -1.33076
H         -9.26633        0.07514       -0.82915
H         -8.47017       -1.36190       -1.50622
H         -8.30475        0.20812       -2.31746
H         -1.07276       -0.18535        2.02940
H         -2.82566        0.09012        1.83789
C         -2.23631       -2.00570        1.92062
H         -3.17523       -2.36594        1.46239
H         -1.43285       -2.62998        1.49557
C         -2.29660       -2.21735        3.42673
H         -3.10580       -1.60017        3.85891
H         -1.35983       -1.84302        3.87782
C         -2.50038       -3.67319        3.82157
H         -3.43378       -4.04582        3.36307
H         -1.68955       -4.27939        3.38081
C         -2.54607       -3.89101        5.32520
H         -2.69178       -4.95207        5.57883
H         -3.36929       -3.32233        5.78747
H         -1.61037       -3.56027        5.80417
C          1.97542        0.80238        2.49148
C          2.95531        0.12050        3.21818
H          3.15724       -0.92353        2.97506
C          1.63208        2.12738        2.81190
C          0.55848        2.85961        2.06493
H          0.99106        3.59202        1.36289
H         -0.06476        2.17501        1.47767
H         -0.08541        3.42364        2.75583
C          3.64324        0.76244        4.24283
H          4.41074        0.22260        4.80226
C          2.33593        2.74599        3.85189
H          2.08067        3.77729        4.11229
C          3.33811        2.08566        4.55738
H          3.86953        2.59845        5.36215
H          4.04427       -0.21839        0.71679
H          3.28981       -1.82846        0.70969
C          4.05243       -1.21726       -1.22127
H          3.34848       -1.83097       -1.81015
H          4.19893       -0.28535       -1.79613
C          5.38580       -1.93965       -1.09073
H          5.23520       -2.87558       -0.52300
H          6.07996       -1.32908       -0.48461
C          6.03223       -2.25999       -2.43113
H          5.33128       -2.86526       -3.03257
H          6.17646       -1.32193       -2.99643
C          7.35967       -2.98928       -2.30249
H          7.80182       -3.20651       -3.28662
H          7.23822       -3.94823       -1.77354
H          8.09061       -2.39175       -1.73399
H          2.09687        1.23571       -1.90605
H          1.04070        1.96034       -0.70682
C          3.17557        2.29171       -0.34069
H          3.15470        2.38616        0.75631
H          4.12762        1.78716       -0.57915
C          3.18254        3.68351       -0.95862
H          2.22098        4.18276       -0.73873
H          3.22691        3.59882       -2.05999
C          4.32802        4.55656       -0.46623
H          4.27690        4.62604        0.63491
H          5.28651        4.05439       -0.68761
C          4.32811        5.95138       -1.07010
H          5.16558        6.55797       -0.69350
H          3.39552        6.48869       -0.83350
H          4.41348        5.91186       -2.16807
