86
Cat502.ts34.5.log	Energy: -1629739.7915190
C         -2.34792        0.81914       -2.49240
H         -2.16471        0.56447       -3.53984
H         -3.33514        0.51598       -2.13031
C         -1.78721        2.04778       -2.00141
H         -1.13078        2.63883       -2.64628
H         -2.39934        2.66263       -1.33143
H         -1.10404        1.68683       -0.58827
Ir        -0.65169        0.22584       -1.28125
O         -2.80849       -0.20730        1.44259
C         -3.25528       -2.00704       -0.49680
C         -1.07835       -2.18618        1.29610
O          2.13863       -1.01273       -0.05889
C          2.59663        1.55217       -0.91015
C          1.25721        1.01896        1.54869
P          1.32971        0.44945       -0.18458
P         -1.92067       -0.97080        0.22212
C          0.17616       -0.78726       -2.65456
O          0.70193       -1.41790       -3.46897
C         -3.13529        1.11250        1.32453
C         -4.26094        1.50313        0.60014
H         -4.87800        0.74072        0.11975
C         -2.33175        2.07370        1.93577
H         -1.44837        1.75016        2.48751
C         -4.57570        2.85640        0.49235
H         -5.45740        3.15468       -0.08175
C         -2.65621        3.42111        1.81604
H         -2.01091        4.16621        2.29025
C         -3.78136        3.84018        1.09354
C         -4.13813        5.29525        0.99282
H         -4.73037        5.50412        0.09019
H         -3.23976        5.92949        0.96549
H         -4.73822        5.61824        1.86018
C         -3.09489       -2.53834       -1.77988
C         -4.41817       -2.29406        0.22803
C         -5.23731       -3.64027       -1.60420
C         -5.40609       -3.10374       -0.32733
C         -4.07947       -3.35855       -2.32764
H         -2.19516       -2.29179       -2.34923
H         -3.94484       -3.77117       -3.33044
H         -6.01329       -4.27591       -2.03776
H         -6.31386       -3.31988        0.24163
H         -4.54421       -1.87284        1.22789
C         -1.38703       -2.31778        2.65470
C         -0.05863       -2.96419        0.73819
C          0.35568       -3.97791        2.89102
C          0.65389       -3.85811        1.53334
C         -0.66768       -3.21000        3.44764
H         -2.17285       -1.69711        3.08790
H         -0.90488       -3.30223        4.51068
H          0.92430       -4.66971        3.51735
H          1.46034       -4.44860        1.09260
H          0.20648       -2.83128       -0.31307
C          3.49228       -1.16306        0.07222
C          4.07875       -1.28939        1.32972
H          3.45308       -1.24939        2.22192
C          4.28421       -1.22125       -1.07582
H          3.80498       -1.12335       -2.05190
C          5.45913       -1.45726        1.43030
H          5.91249       -1.55212        2.42099
C          5.65870       -1.38739       -0.95825
H          6.27049       -1.42267       -1.86405
C          6.27455       -1.50503        0.29531
C          7.75880       -1.70223        0.40698
H          8.11186       -1.53306        1.43413
H          8.30675       -1.01753       -0.25827
H          8.04663       -2.72803        0.12269
C          2.44268        1.97262       -2.23445
C          3.74412        1.93029       -0.19677
C          4.56431        3.11841       -2.13246
C          4.72241        2.70815       -0.80783
C          3.42382        2.75252       -2.84461
H          1.53759        1.67485       -2.77293
H          3.29506        3.07612       -3.88014
H          5.33457        3.72939       -2.60982
H          5.61640        2.99219       -0.24787
H          3.87735        1.60866        0.83830
C          1.23674        2.38768        1.84405
C          1.08343        0.08969        2.57984
C          0.88165        1.88860        4.18187
C          0.89468        0.52509        3.89029
C          1.05480        2.81887        3.15605
H          1.35979        3.12055        1.04264
H          1.04491        3.88866        3.37863
H          0.73329        2.22834        5.20960
H          0.75158       -0.21109        4.68471
H          1.08322       -0.97807        2.35398
