96
Cat590.ts34.5.log	Energy: -2444350.3373326
C         -2.19495       -2.44280       -2.41803
H         -2.09247       -3.52828       -2.33980
H         -3.21985       -2.08393       -2.28344
C         -1.34165       -1.76046       -3.34421
H         -0.56636       -2.31355       -3.88165
H         -1.76631       -0.94146       -3.93454
H         -0.67017       -0.49401       -2.54564
Ir        -0.69166       -1.47270       -1.18702
O         -3.08690        1.14034       -0.41828
C         -3.85643       -1.24403        0.23748
C         -1.87027        0.10993        1.73915
O          1.61199       -0.92273        1.04833
C          2.78080       -0.94665       -1.42337
C          1.36230        1.33917       -0.46615
P          1.26380       -0.47440       -0.53790
P         -2.30454       -0.30387        0.00880
C         -0.12861       -3.09599       -0.39385
O          0.23314       -4.07739        0.09896
C         -2.56511        2.28367       -0.92864
C         -1.61218        2.31064       -1.95012
H         -1.20131        1.37200       -2.31984
C         -3.08496        3.48860       -0.44377
H         -3.84413        3.45923        0.34010
C         -1.18724        3.52537       -2.47715
H         -0.44311        3.54757       -3.27376
C         -2.66275        4.70518       -0.97004
H         -3.07889        5.64450       -0.60135
C         -1.71044        4.71948       -1.98697
Cl        -1.17444        6.23352       -2.64478
C         -3.76152       -2.58784        0.63280
H         -2.77607       -3.04263        0.76310
C         -5.12240       -0.69290        0.04650
H         -5.21155        0.34886       -0.26397
C         -4.89819       -3.34817        0.84394
H         -4.83381       -4.39274        1.15403
C         -6.27636       -1.45461        0.24257
H         -7.25037       -0.99372        0.07601
C         -6.17016       -2.78814        0.64794
O         -7.21952       -3.60508        0.86580
C         -8.51315       -3.10434        0.68217
H         -8.68330       -2.77557       -0.35851
H         -9.20466       -3.92501        0.91173
H         -8.72680       -2.25832        1.35935
C         -2.37513        1.24673        2.38854
H         -3.09935        1.88166        1.87779
C         -0.96854       -0.70358        2.42532
H         -0.55278       -1.58125        1.92900
C         -1.94401        1.58494        3.66175
H         -2.31347        2.47810        4.16951
C         -0.53806       -0.38383        3.71122
H          0.18431       -1.03476        4.20349
C         -1.00915        0.77895        4.33077
O         -0.62214        1.19934        5.54968
C          0.34432        0.45629        6.24113
H          1.29028        0.38843        5.67509
H          0.52996        0.98336        7.18547
H         -0.00693       -0.56584        6.46641
C          2.81542       -0.80278        1.67177
C          3.14290        0.35630        2.37907
H          2.43663        1.18621        2.40614
C          3.70724       -1.87726        1.63742
H          3.42679       -2.77461        1.08296
C          4.36675        0.44494        3.03779
H          4.63596        1.34623        3.59096
C          4.92934       -1.79280        2.29502
H          5.63452       -2.62492        2.27024
C          5.25607       -0.62765        2.98867
Cl         6.78193       -0.51411        3.80480
C          4.02275       -0.33054       -1.17414
H          4.09164        0.50316       -0.47197
C          2.73676       -2.00979       -2.32683
H          1.77123       -2.48966       -2.51517
C          5.17055       -0.77024       -1.80843
H          6.13875       -0.30382       -1.61843
C          3.88490       -2.46172       -2.97431
H          3.81048       -3.29361       -3.67470
C          5.11311       -1.84217       -2.71453
O          6.27733       -2.19977       -3.28035
C          6.29243       -3.26553       -4.19072
H          5.66054       -3.05976       -5.07224
H          7.33272       -3.38288       -4.51880
H          5.95624       -4.20745       -3.72340
C          1.97724        2.09890       -1.47295
H          2.48365        1.60069       -2.30275
C          0.70578        2.01322        0.56870
H          0.20708        1.44533        1.35616
C          1.94829        3.48384       -1.43217
H          2.41980        4.08662       -2.21047
C          0.66501        3.40280        0.61775
H          0.13192        3.88738        1.43546
C          1.28794        4.15021       -0.38932
O          1.29839        5.49034       -0.44196
C          0.58364        6.21403        0.52257
H          0.99742        6.06286        1.53507
H          0.67614        7.27247        0.25077
H         -0.48440        5.93823        0.52457
