96
Cat598.ts34.5.log	Energy: -2444437.7571953
C         -1.43267        0.91202       -4.10171
H         -1.34676        0.23640       -4.95653
H         -2.45406        1.25276       -3.90833
C         -0.34279        1.82001       -3.86549
H          0.56751        1.74110       -4.46554
H         -0.57838        2.85338       -3.58569
H         -0.06613        1.73601       -2.29874
Ir        -0.37511        0.08819       -2.40393
O         -2.61054        1.57699       -0.22012
O         -3.59458       -0.18108       -1.65730
O         -2.00988       -0.86010        0.28530
O          1.84047       -1.76833       -0.77525
O          2.72833        0.56256       -1.37139
O          1.09358        0.29567        0.54465
P          1.33279       -0.21751       -0.99351
P         -2.13722        0.16700       -1.00152
C         -0.11977       -1.61646       -3.23140
O          0.03879       -2.65053       -3.70781
C         -1.69791        2.44701        0.30605
C         -1.46347        3.65519       -0.35156
H         -1.99417        3.86118       -1.28302
C         -1.02774        2.15418        1.49419
H         -1.19356        1.19682        1.98980
C         -0.57642        4.58282        0.18652
H         -0.39148        5.53483       -0.31341
C         -0.13606        3.07525        2.03423
H          0.40023        2.84861        2.95682
C          0.07943        4.28681        1.38082
Cl         1.17262        5.45103        2.06365
C         -4.82827       -0.22041       -1.04053
C         -5.49478        0.95011       -0.69234
H         -5.03130        1.91366       -0.90241
C         -5.41184       -1.46246       -0.80222
H         -4.87749       -2.36536       -1.10089
C         -6.72781        0.86440       -0.04907
H         -7.24334        1.78585        0.23560
C         -6.64044       -1.52951       -0.15743
H         -7.08164       -2.50902        0.04624
C         -7.31506       -0.36985        0.24616
C         -8.61186       -0.45768        0.99704
H         -8.43465       -0.68702        2.06157
H         -9.25799       -1.25362        0.59742
H         -9.17006        0.48835        0.95369
C         -2.95423       -1.27184        1.19752
C         -3.07446       -2.64409        1.40308
H         -2.43638       -3.31998        0.83015
C         -3.74519       -0.38219        1.92466
H         -3.65111        0.69069        1.76381
C         -4.01752       -3.12710        2.30606
H         -4.11153       -4.20668        2.45277
C         -4.69028       -0.88442        2.81249
H         -5.32416       -0.18065        3.35886
C         -4.85496       -2.25982        3.01514
C         -5.91964       -2.78047        3.93612
H         -6.01911       -2.15406        4.83513
H         -5.70837       -3.80979        4.25927
H         -6.90257       -2.78824        3.43514
C          3.13914       -2.19699       -0.66199
C          3.64744       -2.56003        0.58399
H          3.01538       -2.48402        1.46916
C          3.92829       -2.29949       -1.80737
H          3.50554       -2.01991       -2.77363
C          4.96217       -3.00468        0.68798
H          5.37575       -3.28432        1.65796
C          5.24377       -2.74074       -1.70522
H          5.87546       -2.81774       -2.59136
C          5.75742       -3.08443       -0.45442
Cl         7.40008       -3.62051       -0.32046
C          3.52336        1.28829       -0.51180
C          4.76639        0.79045       -0.13274
H          5.09581       -0.17965       -0.50578
C          3.08608        2.52684       -0.04526
H          2.10336        2.89859       -0.34053
C          5.56364        1.53475        0.73407
H          6.53479        1.13292        1.03567
C          3.89277        3.25499        0.82352
H          3.52751        4.21265        1.20209
C          5.14333        2.77307        1.23270
C          6.01347        3.57825        2.15369
H          5.41333        4.13849        2.88566
H          6.60980        4.31537        1.59024
H          6.71879        2.93945        2.70447
C          1.39730       -0.32968        1.72770
C          2.42218        0.16841        2.52870
H          3.00128        1.02882        2.19207
C          0.64507       -1.42831        2.14080
H         -0.15793       -1.79106        1.49931
C          2.70247       -0.45877        3.74051
H          3.51573       -0.07123        4.36022
C          0.94237       -2.04231        3.35378
H          0.35205       -2.90747        3.66788
C          1.97636       -1.57416        4.17528
C          2.27011       -2.22665        5.49499
H          3.30918       -2.05207        5.80907
H          2.10268       -3.31294        5.45421
H          1.61613       -1.82645        6.28787
