70
Cat553.ts34.5.log	Energy: -1247433.5665157
C         -0.99921       -3.67972       -0.23297
H         -0.49138       -4.52936        0.23185
H         -2.05920       -3.61095        0.03191
C         -0.62340       -3.35605       -1.58919
H          0.20758       -3.88936       -2.05917
H         -1.42281       -3.12660       -2.30396
H         -0.48798       -1.77372       -1.59950
Ir         0.20628       -1.90057       -0.07122
O         -1.64544        0.85872       -0.23076
C         -3.08931       -1.17663        1.08404
C         -1.00194        0.35254        2.36034
O          1.72376        0.95804        0.52570
C          3.44777       -0.72465       -0.80949
C          1.29282        0.62462       -2.20370
P          1.68161       -0.25648       -0.63896
P         -1.40413       -0.48797        0.77718
C          1.44599       -2.66480        1.13910
O          2.21188       -3.09130        1.89548
C         -2.77475        1.61124       -0.34681
C         -3.02081        2.67305        0.52542
H         -2.30169        2.88382        1.31847
C         -3.64556        1.33420       -1.41514
C         -3.31516        0.24158       -2.38651
H         -3.99911        0.25696       -3.24584
H         -2.28150        0.34209       -2.75083
H         -3.37763       -0.75558       -1.92256
C         -4.17198        3.44308        0.37697
H         -4.36566        4.26796        1.06665
C         -4.79291        2.12212       -1.54198
H         -5.48310        1.91761       -2.36525
C         -5.06716        3.16062       -0.65266
H         -5.97291        3.75859       -0.77488
H         -2.85303       -2.12982        1.58760
C         -4.12415       -0.39870        1.88406
H         -4.44375        0.51980        1.37472
H         -3.74535       -0.11825        2.87825
H         -3.48395       -1.46832        0.09737
H         -5.01937       -1.02030        2.04268
H         -1.80317        1.06645        2.60995
C         -0.75438       -0.62558        3.49799
H          0.02887       -1.34873        3.22619
H         -1.65994       -1.19556        3.75990
H         -0.08945        0.92668        2.13681
H         -0.42664       -0.09283        4.40335
C          2.51916        2.06930        0.58399
C          3.82620        1.95697        1.06582
H          4.19235        0.97426        1.36588
C          1.97918        3.32362        0.25063
C          0.56662        3.46406       -0.23085
H          0.53190        3.61713       -1.32265
H         -0.02706        2.56928       -0.00917
H          0.08043        4.33737        0.22830
C          4.63273        3.08491        1.17765
H          5.65445        2.98643        1.55160
C          2.81134        4.44205        0.37977
H          2.40565        5.42517        0.12408
C          4.12578        4.33466        0.82555
H          4.74859        5.22769        0.91284
H          3.74697       -1.11833        0.17546
C          3.65171       -1.78143       -1.88525
H          3.39843       -1.40180       -2.88751
H          3.01659       -2.65869       -1.68800
H          4.05498        0.17371       -1.00349
H          4.70101       -2.11130       -1.91152
H          0.33178        1.12245       -1.99710
C          2.32803        1.57101       -2.79198
H          3.24876        1.04046       -3.07749
H          2.61084        2.37117       -2.09421
H          1.05531       -0.18855       -2.90954
H          1.93345        2.04750       -3.70279
