86
Cat562.ts34.5.log	Energy: -1878711.1013945
C         -0.90671       -3.17774       -1.70187
H         -0.53502       -4.16060       -1.39943
H         -1.99640       -3.11859       -1.78944
C         -0.11244       -2.44156       -2.64846
H          0.86339       -2.83076       -2.95269
H         -0.63413       -1.92602       -3.46403
H         -0.03564       -0.99910       -2.08273
Ir         0.06481       -1.64514       -0.52985
O         -1.79088        1.10119       -0.69149
C         -3.44942       -1.08544       -0.45281
C         -2.10624       -0.11830        1.81027
O          1.93782        0.42290        1.36668
C          3.45534       -1.29320       -0.08299
C          2.27240        1.03727       -1.27957
P          1.89965       -0.34037       -0.14583
P         -1.81202       -0.42429        0.02667
C          0.59290       -2.83815        0.84645
O          0.89701       -3.55217        1.69987
C         -2.57541        2.21515       -0.58686
C         -2.89672        2.80350        0.63628
H         -2.54260        2.35387        1.56152
C         -2.97190        2.80789       -1.80153
C         -2.56319        2.20001       -3.10943
H         -1.47331        2.26201       -3.25309
H         -2.81545        1.12984       -3.16227
H         -3.04657        2.71473       -3.95074
C         -3.65742        3.97097        0.66431
H         -3.90815        4.42321        1.62667
C         -3.73247        3.97793       -1.74058
H         -4.05165        4.44413       -2.67687
C         -4.08449        4.55830       -0.52288
H         -4.68163        5.47243       -0.50462
C         -3.73663       -2.39556       -0.03794
H         -2.99521       -2.94905        0.54599
C         -4.39988       -0.39585       -1.21181
H         -4.21594        0.62999       -1.52924
C         -4.94550       -3.00011       -0.36042
H         -5.18090       -4.01686       -0.04104
C         -5.61313       -0.99468       -1.54952
H         -6.36465       -0.46512       -2.13776
C         -5.87039       -2.28887       -1.11910
F         -7.02665       -2.86440       -1.43829
C         -3.39323        0.00011        2.35551
H         -4.27105       -0.09725        1.71359
C         -0.99591        0.00280        2.65582
H          0.01074       -0.09928        2.24386
C         -3.57059        0.25278        3.71158
H         -4.56470        0.34618        4.15229
C         -1.16028        0.26738        4.01197
H         -0.30389        0.36934        4.68093
C         -2.44787        0.38897        4.52161
F         -2.61307        0.63333        5.81771
C          2.66812        1.56197        1.61475
C          4.02272        1.47152        1.93621
H          4.49348        0.48943        1.98498
C          2.01596        2.80482        1.55176
C          0.54721        2.90016        1.27773
H          0.27827        3.89209        0.89028
H          0.20605        2.14595        0.55812
H         -0.02901        2.73502        2.20293
C          4.76129        2.62805        2.17425
H          5.82236        2.55154        2.42275
C          2.78471        3.94913        1.78799
H          2.29667        4.92590        1.73061
C          4.14245        3.87284        2.09027
H          4.71447        4.78658        2.26630
C          4.15311       -1.60291       -1.25732
H          3.83074       -1.17990       -2.21218
C          3.86789       -1.87003        1.12472
H          3.31644       -1.65540        2.04269
C          5.25703       -2.44899       -1.22643
H          5.81663       -2.69382       -2.13096
C          4.96812       -2.72087        1.16749
H          5.30113       -3.17832        2.10077
C          5.65147       -2.99681       -0.01076
F          6.70665       -3.80655        0.02359
C          3.56064        1.58318       -1.39030
H          4.39729        1.12793       -0.85823
C          1.21316        1.65017       -1.96034
H          0.20289        1.24658       -1.85244
C          3.78946        2.71188       -2.16805
H          4.78404        3.15090       -2.26073
C          1.42963        2.78244       -2.73883
H          0.61572        3.27993       -3.26925
C          2.71657        3.29828       -2.83062
F          2.92825        4.38121       -3.57129
