86
Cat558.ts34.5.log	Energy: -1534803.7905053
C         -0.62657       -3.47914       -0.81670
H         -0.20986       -4.34450       -0.29429
H         -1.71815       -3.41732       -0.80078
C          0.05510       -3.03019       -1.99818
H          1.00521       -3.48820       -2.28565
H         -0.55080       -2.72914       -2.85977
H          0.14906       -1.42409       -1.84473
Ir         0.41006       -1.67751       -0.20640
O         -1.59468        1.01397       -0.29481
O         -2.88766       -1.16236       -0.52198
O         -2.11284       -0.44974        1.72991
O          1.82078        1.07235        0.99594
O          3.52442       -0.48805        0.10652
O          2.22920        0.84188       -1.52150
P          1.98734       -0.05511       -0.18849
P         -1.54758       -0.58395        0.19969
C          1.27931       -2.55431        1.23596
O          1.79586       -3.09293        2.11691
C         -2.74677        1.75616       -0.38031
C         -3.32289        2.29919        0.76723
H         -2.86715        2.08828        1.73407
C         -3.29593        1.98346       -1.65237
C         -2.67013        1.37053       -2.86694
H         -1.67763        1.80432       -3.06332
H         -2.52877        0.28825       -2.72729
H         -3.29446        1.53279       -3.75604
C         -4.46766        3.08584        0.66102
H         -4.91872        3.50985        1.56112
C         -4.44028        2.78321       -1.73034
H         -4.88223        2.97217       -2.71258
C         -5.02742        3.33083       -0.59077
H         -5.92296        3.94940       -0.68257
C         -4.20529       -1.27854        0.04986
H         -4.31598       -0.50857        0.82846
C         -4.34959       -2.65106        0.67454
H         -3.59321       -2.80235        1.45642
H         -4.22854       -3.43617       -0.08806
H         -5.34476       -2.76398        1.13057
C         -5.19947       -1.02350       -1.06121
H         -5.07949       -0.00863       -1.46366
H         -5.05753       -1.74902       -1.87697
H         -6.22680       -1.12505       -0.68083
C         -1.27934       -0.66965        2.87867
H         -0.22909       -0.51523        2.57415
C         -1.45551       -2.09609        3.35608
H         -1.21335       -2.80124        2.54844
H         -2.49374       -2.27001        3.67934
H         -0.78501       -2.30581        4.20248
C         -1.66646        0.35550        3.92220
H         -1.50961        1.37625        3.54742
H         -2.72633        0.24391        4.19828
H         -1.05643        0.22611        4.82833
C          2.43005        2.30618        1.04428
C          3.77452        2.48807        0.72566
H          4.36925        1.62535        0.42889
C          1.62013        3.38058        1.44453
C          0.18305        3.15021        1.79130
H         -0.36058        4.10020        1.88432
H         -0.31438        2.52432        1.03719
H          0.09937        2.61259        2.74978
C          4.32894        3.76422        0.79284
H          5.38219        3.90604        0.53932
C          2.20619        4.64784        1.50655
H          1.58692        5.49578        1.81195
C          3.54635        4.84855        1.18130
H          3.97743        5.85085        1.23318
C          4.13654       -1.58669       -0.58559
H          3.32469       -2.25059       -0.93939
C          4.98313       -2.33239        0.42215
H          4.36277       -2.69765        1.25220
H          5.76147       -1.67080        0.83281
H          5.47499       -3.19395       -0.05348
C          4.91994       -1.06008       -1.77153
H          4.26469       -0.49207       -2.44596
H          5.72732       -0.39185       -1.43358
H          5.37233       -1.89190       -2.33235
C          1.14898        1.32993       -2.33171
H          0.20278        0.94325       -1.91836
C          1.34331        0.78477       -3.73042
H          1.34545       -0.31523       -3.71711
H          2.30240        1.12851       -4.14798
H          0.53427        1.12257       -4.39548
C          1.14235        2.84265       -2.26441
H          0.99682        3.18832       -1.23187
H          2.09770        3.24978       -2.62876
H          0.32907        3.25083       -2.88345
