96
Cat540.ts34.5.log	Energy: -1992280.8108368
C          1.23389       -4.16502       -0.59207
H          1.19523       -4.70114       -1.54378
H          2.23254       -4.12512       -0.14730
C          0.09222       -4.27732        0.27537
H         -0.80557       -4.79293       -0.07536
H          0.26625       -4.41234        1.34918
H         -0.19250       -2.78952        0.77563
Ir         0.20671       -2.27059       -0.77094
O          2.33179       -0.77748        1.53275
O          3.43032       -1.54176       -0.54861
O          1.88600        0.54648       -0.61058
O         -1.95526       -0.06157       -1.99181
O         -2.90023       -1.40565       -0.02911
O         -1.22627        0.44539        0.41320
P         -1.48013       -0.81198       -0.60786
P          1.95157       -1.01762       -0.08369
C          0.05038       -2.39614       -2.67217
O         -0.04553       -2.45033       -3.81641
C          1.36528       -0.57202        2.47986
C          1.01662       -1.62383        3.32775
H          1.50376       -2.59172        3.19620
C          0.75614        0.67566        2.62106
H          1.01267        1.48489        1.93618
C          0.07003       -1.42788        4.33074
H         -0.21689       -2.23188        5.01075
C         -0.19257        0.87671        3.61884
H         -0.69289        1.83921        3.73663
C         -0.51848       -0.17639        4.46311
F         -1.43470        0.01165        5.41979
C          4.66192       -0.97201       -0.30079
C          5.25419       -1.05876        0.95523
H          4.73267       -1.57815        1.75878
C          5.32017       -0.33237       -1.34854
H          4.84344       -0.29320       -2.32894
C          6.48796       -0.44745        1.16861
H          6.94487       -0.50565        2.16046
C          6.54825        0.27437       -1.11730
H          7.04800        0.79429       -1.93921
C          7.14892        0.24318        0.14799
C          8.44574        0.95572        0.40068
H          9.13870        0.84837       -0.44724
H          8.94807        0.57550        1.30156
H          8.27814        2.03618        0.54840
C          2.85039        1.52715       -0.62355
C          3.05005        2.19696       -1.82841
H          2.45286        1.90852       -2.69579
C          3.58880        1.88231        0.50551
H          3.43448        1.35744        1.44697
C          4.01888        3.19304       -1.91312
H          4.17498        3.70554       -2.86647
C          4.56087        2.87082        0.39767
H          5.15310        3.12379        1.28137
C          4.80454        3.53806       -0.80859
C          5.89729        4.56143       -0.91584
H          5.74186        5.23238       -1.77275
H          6.87834        4.07551       -1.05249
H          5.96495        5.17823       -0.00727
C         -3.24767        0.22903       -2.36010
C         -3.72038        1.53759       -2.27366
H         -3.06863        2.32336       -1.89110
C         -4.06176       -0.78917       -2.85634
H         -3.66601       -1.80379       -2.92167
C         -5.02390        1.82612       -2.66976
H         -5.42110        2.84072       -2.60927
C         -5.36629       -0.50418       -3.24904
H         -6.02668       -1.28188       -3.63636
C         -5.83282        0.80195       -3.14700
F         -7.08218        1.07787       -3.52068
C         -3.67283       -0.84876        0.96452
C         -4.90140       -0.27656        0.64861
H         -5.23677       -0.25892       -0.38897
C         -3.22484       -0.87659        2.28370
H         -2.25338       -1.31845        2.51059
C         -5.67257        0.28383        1.66475
H         -6.63305        0.74005        1.40990
C         -4.00183       -0.30312        3.28528
H         -3.62560       -0.30317        4.31116
C         -5.23883        0.28855        2.99571
C         -6.08254        0.88163        4.08666
H         -5.46191        1.32658        4.87818
H         -6.71248        0.11121        4.56217
H         -6.75545        1.66014        3.69918
C         -1.49756        1.77872        0.24197
C         -2.51408        2.37688        0.98288
H         -3.11253        1.77187        1.66467
C         -0.72027        2.53494       -0.63410
H          0.07612        2.04401       -1.19316
C         -2.76060        3.73843        0.82217
H         -3.56726        4.20106        1.39747
C         -0.98379        3.89331       -0.78219
H         -0.37356        4.47851       -1.47559
C         -2.00849        4.52135       -0.06193
C         -2.26532        5.99322       -0.20834
H         -3.29754        6.25217        0.06781
H         -2.09174        6.33246       -1.24013
H         -1.59469        6.57829        0.44317
