76
Cat526.ts34.5.log	Energy: -1421213.6644714
C          0.29299       -2.97962       -2.05421
H          0.43033       -2.89203       -3.13537
H          0.99853       -3.66522       -1.57673
C         -1.05767       -2.95123       -1.56490
H         -1.87626       -2.78296       -2.26991
H         -1.33108       -3.65640       -0.76987
H         -1.09196       -1.93052       -0.39577
Ir         0.05577       -0.99598       -1.21906
O          0.68799       -1.62704        2.14313
C          2.40942       -2.91658        0.64442
C          2.55588        0.07305        1.10775
O         -1.00456        2.06831        0.09963
C         -1.73212        1.76058       -2.49859
C         -2.97693        0.35742       -0.09955
P         -1.37952        0.78696       -0.94617
P          1.43046       -1.33386        0.64439
C          0.97051       -0.12730       -2.61062
O          1.55142        0.43344       -3.44251
C         -0.54770       -1.19922        2.49519
C         -1.60883       -2.10881        2.50778
H         -1.42378       -3.13509        2.18565
C         -0.76035        0.11825        2.90902
H          0.07211        0.82284        2.89089
C         -2.87254       -1.71033        2.93767
H         -3.71523       -2.40376        2.95475
C         -2.01950        0.52245        3.34239
H         -2.20933        1.54709        3.66668
C         -3.06121       -0.39656        3.34959
F         -4.27594       -0.00312        3.74074
H          1.59196       -3.63196        0.43562
C          3.39726       -2.98247       -0.51676
H          3.64792       -4.03099       -0.74234
H          2.99364       -2.52320       -1.43137
H          4.33777       -2.47095       -0.26722
C          3.04577       -3.33123        1.96509
H          2.34435       -3.22821        2.80353
H          3.36280       -4.38542        1.90793
H          3.94181       -2.73496        2.18784
H          1.83956        0.91137        1.08694
C          3.17120        0.01527        2.49990
H          3.54962        1.01338        2.77315
H          2.44105       -0.29506        3.26029
H          4.02135       -0.68017        2.54416
C          3.59506        0.34662        0.02689
H          3.14827        0.36776       -0.97757
H          4.06258        1.32647        0.20559
H          4.39560       -0.40668        0.03477
C          0.18473        2.68479        0.26991
C          0.41884        3.26236        1.52483
H         -0.35964        3.18661        2.28569
C          1.15831        2.79814       -0.72775
H          1.00151        2.36355       -1.71330
C          1.61538        3.91847        1.79216
H          1.81258        4.36705        2.76750
C          2.35569        3.45998       -0.46437
H          3.12577        3.54831       -1.23253
C          2.57857        4.00223        0.79280
F          3.73668        4.61476        1.04815
H         -0.71317        2.07353       -2.78726
C         -2.25687        0.88541       -3.63185
H         -2.19360        1.43343       -4.58493
H         -1.66944       -0.03981       -3.72675
H         -3.31043        0.61048       -3.47955
C         -2.56848        3.01767       -2.30010
H         -2.22346        3.61208       -1.44286
H         -2.51085        3.65034       -3.20018
H         -3.62915        2.77312       -2.14249
H         -2.58100       -0.24811        0.73075
C         -3.77226        1.50916        0.50349
H         -4.51215        1.10240        1.21092
H         -3.12688        2.20551        1.05211
H         -4.32110        2.07664       -0.26137
C         -3.86302       -0.54750       -0.94763
H         -3.29575       -1.34812       -1.44053
H         -4.62479       -1.01837       -0.30657
H         -4.39633        0.02203       -1.72324
