90
Cat568.ts34.5.log	Energy: -1818495.8670271
C          0.22304       -3.23758       -1.47069
H          0.01026       -3.51997       -2.50478
H          1.21640       -3.53681       -1.12400
C         -0.86617       -3.27927       -0.53395
H         -1.88251       -3.47835       -0.88743
H         -0.66680       -3.68083        0.46725
H         -0.75530       -1.93032        0.27837
Ir        -0.32455       -1.16414       -1.15419
O          2.48335       -1.40882        0.81105
O          2.88702       -0.52459       -1.46364
O          1.75420        0.99586        0.29887
O         -1.78752        1.78183       -1.52691
O         -3.30429        0.13959       -0.30833
O         -1.43961        1.23219        0.90077
P         -1.70074        0.48294       -0.53635
P          1.68224       -0.51506       -0.35975
C         -0.52375       -0.81048       -3.02027
O         -0.64255       -0.59143       -4.14279
C          1.83255       -2.04016        1.83260
C          0.83520       -1.40411        2.57418
H          0.54352       -0.38114        2.32616
C          2.22947       -3.35758        2.11546
C          3.30737       -4.00440        1.30178
H          3.08569       -3.94753        0.22506
H          4.27317       -3.49355        1.44389
H          3.43317       -5.05962        1.57891
C          0.22005       -2.08510        3.62467
H         -0.55051       -1.58066        4.21192
C          1.59194       -4.01455        3.17060
H          1.88765       -5.04102        3.40406
C          0.59513       -3.39225        3.92258
H          0.11692       -3.92895        4.74483
C          4.16380       -0.01663       -1.43049
C          5.05926       -0.30242       -0.40002
H          4.74282       -0.93802        0.42584
C          4.54471        0.78620       -2.50480
H          3.82069        0.97464       -3.29964
C          6.33063        0.26495       -0.43323
H          7.02587        0.06099        0.38435
C          5.82333        1.33619       -2.53130
H          6.11970        1.96985       -3.37072
C          6.71795        1.08638       -1.49123
H          7.71717        1.52682       -1.50750
C          2.83608        1.63208        0.86725
C          3.44820        2.66170        0.15435
H          3.07540        2.91122       -0.83985
C          3.27781        1.28606        2.14269
H          2.77483        0.49328        2.69679
C          4.53958        3.32299        0.70805
H          5.03164        4.11616        0.14076
C          4.37068        1.95755        2.68784
H          4.72394        1.68313        3.68470
C          5.00909        2.96950        1.97336
H          5.86918        3.48697        2.40374
C         -2.34629        2.98189       -1.13268
C         -3.72845        3.14056       -1.13030
H         -4.35877        2.30154       -1.42654
C         -1.47504        4.01334       -0.75397
C          0.00399        3.78846       -0.75724
H          0.28111        2.98872       -0.05393
H          0.34983        3.46128       -1.75021
H          0.54443        4.70295       -0.47853
C         -4.27608        4.35865       -0.73286
H         -5.36055        4.48802       -0.72387
C         -2.05312        5.22585       -0.36513
H         -1.39663        6.04690       -0.06468
C         -3.43692        5.40196       -0.34804
H         -3.85907        6.35985       -0.03571
C         -3.88178       -1.04671       -0.67988
C         -4.41893       -1.86100        0.31484
H         -4.36700       -1.52742        1.35257
C         -3.93631       -1.42565       -2.02096
H         -3.51878       -0.76873       -2.78558
C         -5.00821       -3.07348       -0.03791
H         -5.43156       -3.71310        0.74017
C         -4.51994       -2.64415       -2.36118
H         -4.55739       -2.94595       -3.41046
C         -5.05287       -3.47301       -1.37362
H         -5.50902       -4.42718       -1.64624
C         -2.27305        1.27418        1.98973
C         -2.51329        0.11769        2.73030
H         -2.06548       -0.82452        2.40917
C         -2.82650        2.49464        2.36774
H         -2.62866        3.38048        1.76144
C         -3.31906        0.18702        3.86466
H         -3.50999       -0.71866        4.44604
C         -3.62622        2.55202        3.50746
H         -4.06187        3.50805        3.80718
C         -3.87681        1.40353        4.25798
H         -4.50687        1.45595        5.14850
