80
Cat531.ts34.5.log	Energy: -1704918.0826360
C         -0.40888       -3.62696       -0.73545
H          0.12804       -4.36156       -0.12920
H         -1.49266       -3.77926       -0.76636
C          0.24865       -3.15072       -1.92326
H          1.27860       -3.45171       -2.13614
H         -0.35370       -3.04354       -2.83277
H          0.06317       -1.57114       -1.91167
Ir         0.26239       -1.63531       -0.23738
O         -2.31784        0.40000       -1.05701
C         -3.21476       -1.91196        0.03274
C         -2.11842        0.16435        1.66979
O          2.25807        0.71169        1.05471
C          3.04544        0.05903       -1.49379
C          0.85286        1.79606       -0.95573
P          1.58161        0.21661       -0.40716
P         -1.82269       -0.73216        0.10231
C          1.12675       -2.20164        1.34922
O          1.63159       -2.52358        2.33844
C         -3.23521        1.38663       -0.83135
C         -2.82520        2.58514       -0.24189
H         -1.78258        2.69971        0.05596
C         -4.56793        1.21808       -1.21179
H         -4.88194        0.27820       -1.66653
C         -3.74011        3.60976       -0.02874
H         -3.43931        4.55114        0.43421
C         -5.48935        2.24237       -1.00080
H         -6.53627        2.13390       -1.28990
C         -5.06437        3.42482       -0.40885
F         -5.94607        4.40532       -0.20274
C         -3.58029       -2.66382        1.15623
C         -3.79412       -2.21230       -1.20661
C         -5.11999       -3.95599       -0.18754
C         -4.74625       -3.22406       -1.31409
C         -4.53056       -3.67633        1.04543
H         -3.11679       -2.45564        2.12405
H         -4.81329       -4.25172        1.93029
H         -5.86559       -4.75009       -0.27147
H         -5.19620       -3.44513       -2.28516
H         -3.48742       -1.64715       -2.09048
C         -3.41310        0.45418        2.12592
C         -1.01741        0.64560        2.38659
C         -2.49512        1.70318        3.97684
C         -1.20579        1.41443        3.53367
C         -3.59865        1.21847        3.27391
H         -4.28154        0.08699        1.57490
H         -4.61106        1.44224        3.61806
H         -2.64277        2.30515        4.87698
H         -0.33757        1.78383        4.08436
H         -0.00679        0.41374        2.04196
C          3.59919        0.77256        1.32422
C          4.37900        1.82530        0.84193
H          3.92033        2.59629        0.22147
C          4.17452       -0.22105        2.11732
H          3.54881       -1.03544        2.48547
C          5.73619        1.88312        1.14518
H          6.36761        2.69267        0.77515
C          5.53052       -0.16347        2.42754
H          6.00392       -0.92773        3.04644
C          6.29620        0.88556        1.93359
F          7.59689        0.93784        2.22345
C          3.73972       -1.15651       -1.46456
C          3.51351        1.10040       -2.30343
C          5.36227       -0.27920       -3.02049
C          4.66445        0.92672       -3.06910
C          4.90010       -1.32031       -2.21545
H          3.34967       -1.97105       -0.84657
H          5.44294       -2.26763       -2.17799
H          6.26823       -0.41034       -3.61722
H          5.02082        1.74089       -3.70464
H          2.97551        2.05039       -2.33765
C          0.13592        1.81986       -2.15810
C          1.00139        2.97401       -0.21696
C         -0.22211        4.19549       -1.90612
C          0.46425        4.17080       -0.69389
C         -0.39022        3.01649       -2.63418
H         -0.02092        0.89199       -2.71312
H         -0.94985        3.02725       -3.57200
H         -0.64519        5.13166       -2.27758
H          0.58224        5.08736       -0.11086
H          1.53367        2.94623        0.73556
