92
Cat544.ts34.5.log	Energy: -1803524.3666105
C         -0.85933        0.68532        4.05950
H         -0.47162        1.54307        4.61577
H         -1.94881        0.68953        3.95984
C         -0.20156       -0.57876        4.26169
H          0.70508       -0.62468        4.87052
H         -0.82186       -1.47618        4.36308
H         -0.02028       -1.20043        2.76918
Ir         0.31672        0.36236        2.27275
O         -1.72326       -1.46011        0.42298
C         -3.14156        0.73660        1.42995
C         -1.36069        0.88282       -0.86708
O          1.94065       -0.22105       -0.71161
C          3.67711       -0.12080        1.39672
C          1.91653       -2.39055        0.75699
P          1.93178       -0.53514        0.92685
P         -1.47858        0.16365        0.82067
C          1.24763        1.99590        2.48935
O          1.81636        2.99789        2.60862
C         -2.79774       -2.07552       -0.14963
C         -3.55047       -2.94434        0.64424
H         -3.27410       -3.06425        1.69345
C         -3.09854       -1.94371       -1.50805
H         -2.47667       -1.31533       -2.14488
C         -4.63277       -3.63236        0.10575
H         -5.23783       -4.30939        0.71146
C         -4.18903       -2.61848       -2.04916
H         -4.45451       -2.51307       -3.10233
C         -4.95114       -3.44528       -1.23387
F         -6.00121       -4.08390       -1.75031
H         -2.92522        1.74228        1.82622
H         -3.35955        0.10279        2.30372
C         -4.30926        0.76949        0.48703
C         -5.32525       -0.19003        0.57197
H         -5.27632       -0.95457        1.34950
C         -4.41807        1.76357       -0.49538
H         -3.66266        2.55048       -0.55657
C         -6.38807       -0.19376       -0.32672
H         -7.15966       -0.96337       -0.24797
C         -5.48156        1.76310       -1.39553
H         -5.54159        2.54508       -2.15648
C         -6.46476        0.77776       -1.32356
H         -7.29522        0.77432       -2.03341
H         -2.28064        0.61017       -1.40780
H         -0.53215        0.32821       -1.33879
C         -1.14061        2.36671       -1.01733
C         -1.12610        2.89666       -2.31477
H         -1.25110        2.22320       -3.16689
C         -0.97444        3.24585        0.05740
H         -0.95278        2.85886        1.07788
C         -0.94347        4.25813       -2.53354
H         -0.91774        4.64503       -3.55479
C         -0.79014        4.61141       -0.15829
H         -0.65263        5.27513        0.69864
C         -0.77314        5.12345       -1.45280
H         -0.62446        6.19243       -1.62227
C          2.02415        0.93234       -1.41714
C          1.94408        0.78948       -2.80732
H          1.82796       -0.21618       -3.21710
C          2.19006        2.19882       -0.85421
H          2.23168        2.33251        0.22468
C          2.01815        1.90781       -3.62931
H          1.95036        1.82031       -4.71526
C          2.27008        3.31910       -1.67954
H          2.37558        4.31834       -1.25558
C          2.17422        3.16371       -3.05308
F          2.21377        4.24203       -3.84032
H          3.73358       -0.37548        2.46622
H          3.74796        0.97680        1.33929
C          4.75564       -0.79222        0.60695
C          5.09148       -0.35122       -0.67989
H          4.58758        0.52087       -1.10203
C          5.43057       -1.90339        1.12896
H          5.19486       -2.24865        2.13984
C          6.05848       -1.01616       -1.42831
H          6.30121       -0.66021       -2.43229
C          6.40167       -2.56862        0.38214
H          6.91674       -3.43280        0.80828
C          6.71419       -2.13016       -0.90356
H          7.47254       -2.65084       -1.49286
H          1.02291       -2.71562        1.30503
H          2.80191       -2.76525        1.29279
C          1.88359       -2.89736       -0.65605
C          3.05645       -3.20290       -1.35235
H          4.02340       -3.10972       -0.85452
C          0.65565       -3.02204       -1.31643
H         -0.26084       -2.77569       -0.77806
C          3.00299       -3.61058       -2.68383
H          3.93103       -3.84153       -3.21265
C          0.60089       -3.43051       -2.64632
H         -0.36880       -3.52494       -3.14218
C          1.77691       -3.72176       -3.33837
H          1.73720       -4.04261       -4.38227
