102
Cat513.ts34.5.log	Energy: -1917103.2710871
C          2.11668       -3.59853       -0.40229
H          2.01992       -4.25068       -1.27419
H          3.14734       -3.35454       -0.13067
C          1.14214       -3.74936        0.64192
H          0.29128       -4.42032        0.49637
H          1.49026       -3.72493        1.68201
H          0.71257       -2.28365        1.00750
Ir         0.80654       -1.89120       -0.62191
O          2.41306        0.71479        1.05853
O          3.92727       -0.96076       -0.08049
O          2.76944        0.76354       -1.39961
O         -1.57450        0.34543       -1.41049
O         -2.52832       -1.83869       -0.53707
O         -1.41915       -0.20156        1.09774
P         -1.19468       -0.87885       -0.37565
P          2.41203       -0.34092       -0.22513
C          0.63045       -2.18732       -2.49384
O          0.58293       -2.37804       -3.62820
C          1.52655        0.71407        2.10089
C          1.39359       -0.38179        2.94977
H          2.00594       -1.26964        2.78662
C          0.78096        1.86893        2.33220
H          0.91686        2.72469        1.66911
C          0.48669       -0.32509        4.00702
H          0.38555       -1.18948        4.66907
C         -0.11851        1.90888        3.38966
H         -0.71096        2.81343        3.55181
C         -0.29473        0.80974        4.24041
C         -1.31531        0.84588        5.33849
H         -1.16140        0.03106        6.05997
H         -2.33120        0.73671        4.92457
H         -1.28479        1.79936        5.88726
C          5.07659       -0.20949        0.06374
C          5.66177        0.37112       -1.06000
H          5.17356        0.24982       -2.02671
C          5.65802       -0.10214        1.33479
C          5.02438       -0.74015        2.53236
H          4.19906       -0.12129        2.91764
H          4.60302       -1.72446        2.28101
H          5.75552       -0.86790        3.34243
C          6.84333        1.09453       -0.92656
H          7.29928        1.55352       -1.80671
C          6.84997        0.62345        1.43702
H          7.32444        0.71387        2.41811
C          7.43861        1.22381        0.32660
H          8.36816        1.78627        0.43981
C          2.22604        2.00904       -1.58277
C          2.59008        3.05261       -0.72909
H          3.27626        2.84131        0.09085
C          1.37739        2.22142       -2.68070
C          0.98709        1.09896       -3.59047
H          1.78940        0.35499       -3.67825
H          0.10194        0.57933       -3.19250
H          0.73536        1.47480       -4.59176
C          2.08040        4.33081       -0.94306
H          2.36583        5.14581       -0.27353
C          0.89490        3.52007       -2.87769
H          0.23006        3.70541       -3.72545
C          1.22813        4.56548       -2.02094
H          0.82656        5.56545       -2.19967
C         -2.11295        1.57393       -1.09578
C         -1.30882        2.54567       -0.50716
H         -0.26245        2.32376       -0.30057
C         -3.44481        1.84521       -1.39698
H         -4.06264        1.07683       -1.86264
C         -1.85441        3.78513       -0.18909
H         -1.21481        4.53959        0.27673
C         -3.97308        3.09319       -1.07641
H         -5.02284        3.29679       -1.30439
C         -3.19564        4.08234       -0.46150
C         -3.76862        5.43252       -0.14144
H         -4.85267        5.37961        0.03509
H         -3.60713        6.13782       -0.97397
H         -3.29715        5.86977        0.75079
C         -3.75106       -1.51316       -1.08949
C         -4.81990       -1.20127       -0.25269
H         -4.67113       -1.19689        0.82647
C         -3.89946       -1.56819       -2.48429
C         -2.75219       -1.94733       -3.36528
H         -2.02728       -1.12273       -3.44615
H         -2.20826       -2.81137       -2.95751
H         -3.09647       -2.19462       -4.37831
C         -6.05991       -0.88966       -0.80389
H         -6.89287       -0.63612       -0.14454
C         -5.15664       -1.24834       -3.00901
H         -5.29232       -1.27909       -4.09343
C         -6.22746       -0.90177       -2.18684
H         -7.19574       -0.65491       -2.62809
C         -2.52613       -0.18339        1.91113
C         -3.27132        0.98828        2.01554
H         -2.97722        1.85829        1.42940
C         -2.83553       -1.32489        2.66711
C         -1.99795       -2.56068        2.57072
H         -2.14210       -3.06149        1.60047
H         -0.93073       -2.30648        2.64794
H         -2.25262       -3.27131        3.36850
C         -4.38059        1.02596        2.85607
H         -4.97009        1.94262        2.92795
C         -3.95746       -1.25761        3.50115
H         -4.22163       -2.13815        4.09283
C         -4.73387       -0.10344        3.59299
H         -5.60605       -0.08389        4.25013
