86
Cat505.ts34.5.log	Energy: -2783024.0775900
C         -0.45324       -3.74958       -0.46757
H         -0.05253       -4.46734        0.25327
H         -1.53163       -3.83939       -0.63399
C          0.38458       -3.40491       -1.58478
H          1.40956       -3.78348       -1.63601
H         -0.08446       -3.32947       -2.57251
H          0.31203       -1.81902       -1.70354
Ir         0.28297       -1.76847       -0.01784
O         -2.03426        0.31722       -1.33038
C         -3.21591       -1.81746       -0.16686
C         -2.18958        0.32182        1.41130
O          2.25554        0.54068        1.37428
C          3.29666       -0.31496       -1.01672
C          1.16277        1.56523       -0.84517
P          1.73047       -0.01108       -0.12458
P         -1.76197       -0.72169       -0.02780
C          0.89432       -2.27142        1.70401
O          1.24290       -2.55620        2.76823
C         -2.89509        1.38141       -1.33743
C         -2.51283        2.58696       -0.74451
H         -1.55204        2.64472       -0.23272
C         -4.12914        1.28925       -1.97759
H         -4.42979        0.34661       -2.43622
C         -3.35432        3.68942       -0.80643
H         -3.03349        4.62831       -0.34702
C         -4.96686        2.40366       -2.02721
H         -5.93221        2.32091       -2.53425
C         -4.59838        3.62148       -1.44840
C         -5.49002        4.82691       -1.52036
H         -5.65948        5.26122       -0.52270
H         -6.46973        4.57933       -1.95254
H         -5.03915        5.61664       -2.14327
C         -3.67856       -2.18845       -1.43497
H         -3.24023       -1.72496       -2.32208
C         -3.75829       -2.44623        0.96066
H         -3.39301       -2.18828        1.95807
C         -4.68314       -3.14106       -1.57913
H         -5.04963       -3.42584       -2.56677
C         -4.76127       -3.40140        0.83004
H         -5.19003       -3.88659        1.70834
C         -5.22312       -3.74036       -0.44197
Cl        -6.47394       -4.92489       -0.61080
C         -1.16459        0.77663        2.24747
H         -0.13852        0.44129        2.07681
C         -3.50321        0.75173        1.65032
H         -4.31721        0.41273        1.00586
C         -1.43482        1.65254        3.29477
H         -0.63528        2.00684        3.94705
C         -3.78729        1.62268        2.69526
H         -4.80702        1.96375        2.87931
C         -2.74647        2.07283        3.50850
Cl        -3.09219        3.16660        4.80392
C          3.56264        0.54187        1.79507
C          4.45243        1.52333        1.36012
H          4.11246        2.29018        0.66218
C          3.99066       -0.44438        2.68132
H          3.28337       -1.20627        3.01262
C          5.77002        1.50662        1.80780
H          6.46259        2.27458        1.45236
C          5.31085       -0.44342        3.12361
H          5.63913       -1.22366        3.81592
C          6.22591        0.52545        2.69581
C          7.64203        0.52994        3.19394
H          8.33297        0.93600        2.44081
H          7.97994       -0.48309        3.45599
H          7.74214        1.15247        4.09899
C          3.90956       -1.56081       -0.83862
H          3.40315       -2.31640       -0.23034
C          3.92508        0.64679       -1.81536
H          3.45911        1.62287       -1.96742
C          5.13881       -1.83881       -1.42448
H          5.62628       -2.80386       -1.27858
C          5.14603        0.37390       -2.42381
H          5.63811        1.11724       -3.05288
C          5.74949       -0.86593       -2.21624
Cl         7.27457       -1.20495       -2.95831
C          1.26309        2.77249       -0.14739
H          1.68630        2.77857        0.85868
C          0.59079        1.55788       -2.12318
H          0.46934        0.61377       -2.65919
C          0.81150        3.96085       -0.71914
H          0.87552        4.90407       -0.17436
C          0.14478        2.73760       -2.70587
H         -0.31707        2.73509       -3.69390
C          0.25424        3.93405       -1.99550
Cl        -0.35962        5.39477       -2.68845
