92
Cat594.ts34.5.log	Energy: -2255677.2353184
C          0.81356       -2.03195       -2.91532
H          1.74492       -2.60251       -2.97154
H         -0.09409       -2.63481       -3.01698
C          0.81222       -0.71925       -3.49045
H          1.72850       -0.30027       -3.91580
H         -0.08790       -0.40915       -4.03409
H          0.19070        0.26986       -2.39280
Ir         0.90756       -0.69036       -1.21200
O         -2.12173        0.46429       -0.46496
C         -2.29243       -1.94465       -1.71413
C         -1.63753       -1.77893        1.10776
O          2.15611        1.27910        1.32431
C          2.80849        2.27278       -1.11224
C          0.18308        2.51960       -0.01679
P          1.52048        1.29141       -0.23023
P         -1.28505       -0.99691       -0.51865
C          2.22992       -1.79828       -0.41763
O          2.98075       -2.56480        0.00771
C         -3.19993        0.88936        0.24042
C         -4.24903        1.48656       -0.46439
H         -4.18841        1.54984       -1.55152
C         -3.25145        0.84440        1.63690
H         -2.42804        0.40776        2.19722
C         -5.34169        2.02056        0.20967
H         -6.15823        2.49157       -0.33985
C         -4.34850        1.36547        2.31476
H         -4.39154        1.32685        3.40445
C         -5.39175        1.95154        1.60092
Cl        -6.75458        2.60895        2.44855
C         -3.07954       -1.24027       -2.63312
H         -3.14140       -0.15437       -2.54948
C         -2.14928       -3.34487       -1.84119
C         -1.26964       -4.15011       -0.92921
H         -1.73271       -4.29891        0.05883
H         -0.30577       -3.64568       -0.75382
H         -1.06817       -5.14044       -1.36033
C         -3.77409       -1.90211       -3.64086
H         -4.39208       -1.33537       -4.34126
C         -2.85765       -3.98806       -2.86349
H         -2.75682       -5.07217       -2.96606
C         -3.67099       -3.28680       -3.74976
H         -4.21028       -3.82170       -4.53499
C         -0.53235       -1.84664        1.96542
H          0.42691       -1.47846        1.59177
C         -2.89214       -2.27359        1.53899
C         -4.13614       -2.29332        0.69819
H         -4.13082       -3.14914        0.00472
H         -4.25338       -1.39302        0.08443
H         -5.02392       -2.38373        1.33924
C         -0.63442       -2.37753        3.24682
H          0.24570       -2.42508        3.89222
C         -2.96953       -2.80048        2.83507
H         -3.93364       -3.17856        3.18565
C         -1.86674       -2.85469        3.68363
H         -1.97378       -3.27582        4.68633
C          3.06768        0.35428        1.73837
C          2.74252       -0.44632        2.83457
H          1.77323       -0.31421        3.31736
C          4.31323        0.22313        1.12064
H          4.56860        0.86258        0.27487
C          3.64500       -1.39783        3.29647
H          3.39811       -2.03557        4.14675
C          5.21598       -0.73066        1.57853
H          6.18585       -0.85256        1.09432
C          4.87595       -1.54278        2.65834
Cl         5.99556       -2.73966        3.21981
C          3.40101        1.66338       -2.22276
H          3.05672        0.65956       -2.48905
C          3.25384        3.54708       -0.68588
C          2.69392        4.26726        0.50620
H          2.55617        3.59017        1.35909
H          1.70847        4.70264        0.27819
H          3.36338        5.08399        0.80960
C          4.41319        2.29202       -2.94286
H          4.86351        1.79617       -3.80570
C          4.27506        4.15754       -1.42323
H          4.63382        5.13977       -1.10352
C          4.84809        3.55025       -2.53894
H          5.64456        4.06169       -3.08529
C         -0.17975        3.16323       -1.20747
H          0.37650        2.94555       -2.12406
C         -0.53231        2.78071        1.16820
C         -0.25136        2.11919        2.48715
H          0.70428        2.45388        2.91466
H         -0.18089        1.02703        2.38572
H         -1.05238        2.35137        3.20192
C         -1.22762        4.07427       -1.24729
H         -1.49201        4.56340       -2.18750
C         -1.57781        3.71263        1.10429
H         -2.14525        3.91922        2.01527
C         -1.92916        4.35504       -0.07701
H         -2.75895        5.06540       -0.08366
