100
Cat583.ts34.5.log	Energy: -2070577.1690642
C          2.82883        2.35342       -2.03528
H          3.12365        3.35967       -1.72515
H          3.67835        1.71216       -2.29179
C          1.63513        2.23856       -2.83894
H          1.02006        3.12524       -3.01636
H          1.66408        1.57765       -3.71416
H          0.86458        1.00091       -2.22657
Ir         1.32298        1.55931       -0.70917
O          2.49997       -1.71959       -1.20165
C          4.31707       -0.18921       -0.07221
C          2.04272       -1.19083        1.39999
O         -0.79557        0.01962        1.34505
C         -1.83588        2.41750        0.60293
C         -1.82748        0.15857       -1.22049
P         -0.78176        1.04676       -0.00336
P          2.49654       -0.35188       -0.16794
C          1.46991        2.95917        0.55858
O          1.53046        3.79288        1.35775
C          1.36569       -2.15181       -1.79875
C          0.99174       -1.65442       -3.05175
H          1.62700       -0.90737       -3.52915
C          0.57481       -3.13174       -1.18867
H          0.88428       -3.53351       -0.22206
C         -0.15684       -2.12068       -3.68403
H         -0.45008       -1.73576       -4.66204
C         -0.57459       -3.60543       -1.81710
H         -1.18703       -4.37942       -1.35098
C         -0.94037       -3.09099       -3.06031
Cl        -2.37335       -3.67571       -3.84331
H          4.63290        0.14974       -1.07252
H          4.49366        0.66632        0.60193
C          5.11051       -1.41611        0.35054
H          4.85611       -1.68743        1.38948
H          4.81198       -2.27362       -0.27511
C          6.61552       -1.20687        0.24949
H          6.90663       -0.33120        0.85811
H          6.87834       -0.94619       -0.79201
C          7.42735       -2.41838        0.68627
H          7.16289       -2.67386        1.72785
H          7.12594       -3.29119        0.08039
C          8.92920       -2.21119        0.57596
H          9.48802       -3.10252        0.89913
H          9.26264       -1.36559        1.19897
H          9.22666       -1.99047       -0.46188
H          1.00995       -1.53764        1.24574
H          2.68063       -2.08017        1.52681
C          2.07639       -0.27483        2.61375
H          3.11945       -0.01475        2.86874
H          1.57766        0.67173        2.34958
C          1.38055       -0.87962        3.82454
H          1.90356       -1.80098        4.14035
H          0.36583       -1.19573        3.52536
C          1.27257        0.07744        5.00246
H          2.28426        0.38777        5.31884
H          0.77112        1.00125        4.66318
C          0.51833       -0.50925        6.18465
H          0.44915        0.20396        7.02014
H          1.01224       -1.41852        6.56383
H         -0.50848       -0.79019        5.89871
C         -1.86573       -0.67748        1.81035
C         -2.11827       -1.96456        1.32786
H         -1.45654       -2.38621        0.57001
C         -2.68905       -0.13327        2.79933
H         -2.45908        0.85624        3.19798
C         -3.22119       -2.67907        1.78179
H         -3.43819       -3.67543        1.39325
C         -3.79229       -0.84634        3.26011
H         -4.44893       -0.42481        4.02285
C         -4.06415       -2.10983        2.73606
Cl        -5.45904       -2.98321        3.27711
H         -2.79831        2.01107        0.95454
H         -1.31091        2.82980        1.48111
C         -2.04938        3.50310       -0.44333
H         -1.06539        3.83036       -0.82098
H         -2.58382        3.08391       -1.31452
C         -2.82161        4.70018        0.09261
H         -2.27991        5.11924        0.95975
H         -3.80049        4.36527        0.48207
C         -3.03701        5.79304       -0.94487
H         -2.05562        6.11974       -1.33153
H         -3.57275        5.36773       -1.81226
C         -3.80184        6.99213       -0.40853
H         -3.94132        7.76404       -1.18041
H         -3.27024        7.45892        0.43623
H         -4.80071        6.69984       -0.04623
H         -1.59975        0.63307       -2.18835
H         -1.37504       -0.84487       -1.28961
C         -3.33449        0.07089       -0.99455
H         -3.56789       -0.07417        0.07101
H         -3.80956        1.02587       -1.27708
C         -3.95642       -1.07331       -1.78082
H         -3.42807       -2.00735       -1.52081
H         -3.77391       -0.92995       -2.86086
C         -5.44364       -1.26128       -1.52548
H         -5.60218       -1.42300       -0.44395
H         -5.98116       -0.32811       -1.77159
C         -6.03768       -2.42061       -2.30912
H         -7.10971       -2.55006       -2.09688
H         -5.53002       -3.36701       -2.06292
H         -5.92657       -2.26749       -3.39456
