106
Cat518.ts34.5.log	Energy: -1543239.2008306
C          2.42709        2.31011       -2.10902
H          2.60892        3.36260       -1.87442
H          3.34302        1.74976       -2.32303
C          1.25522        2.00826       -2.89760
H          0.54983        2.80866       -3.13838
H          1.35943        1.29177       -3.72198
H          0.62654        0.74164       -2.19451
Ir         1.01282        1.45693       -0.72292
O          2.42377       -1.75373       -0.95747
C          4.16398        0.00514       -0.10029
C          2.05645       -0.99324        1.60227
O         -0.99074       -0.19676        1.37661
C         -2.19109        2.11231        0.57750
C         -2.03032       -0.17245       -1.19559
P         -1.04321        0.79976        0.01024
P          2.35752       -0.29925       -0.06857
C          1.02790        2.92928        0.46604
O          1.00952        3.80410        1.22352
C          1.32823       -2.30642       -1.53398
C          0.96462       -1.96462       -2.83836
H          1.56218       -1.22403       -3.37217
C          0.57818       -3.26622       -0.84765
H          0.87248       -3.53614        0.16866
C         -0.12633       -2.58261       -3.44550
H         -0.39337       -2.30826       -4.47001
C         -0.50783       -3.87900       -1.46715
H         -1.07485       -4.63969       -0.92206
C         -0.88203       -3.55283       -2.77738
C         -2.02456       -4.25723       -3.44984
H         -1.74202       -5.28334       -3.73766
H         -2.34052       -3.73272       -4.36203
H         -2.89874       -4.33603       -2.78570
H          4.31610        0.95522        0.43903
H          4.38554        0.21994       -1.15716
C          5.06130       -1.09986        0.43430
H          4.85854       -1.24648        1.50846
H          4.80171       -2.05068       -0.06273
C          6.56082       -0.83614        0.26267
H          6.78189        0.14453        0.72540
C          7.36902       -1.89594        1.00303
H          7.11086       -1.92562        2.07324
H          8.45092       -1.70779        0.92218
H          7.17307       -2.89783        0.58566
C          6.97523       -0.76822       -1.20327
H          8.05730       -0.58995       -1.30089
H          6.46077        0.03882       -1.74605
H          6.74486       -1.71661       -1.71715
H          2.72608       -1.85695        1.74553
H          1.02020       -1.35994        1.57713
C          2.22104        0.03947        2.70681
H          3.23744        0.46963        2.66399
H          1.52915        0.87759        2.51602
C          1.98678       -0.49848        4.12131
H          2.68015       -1.34777        4.27425
C          2.32660        0.57369        5.15050
H          3.36589        0.92217        5.04367
H          2.19945        0.20035        6.17862
H          1.66908        1.45069        5.02955
C          0.56510       -1.00929        4.32272
H          0.42371       -1.39053        5.34602
H          0.30862       -1.82284        3.62846
H         -0.16588       -0.20151        4.15905
C         -2.04294       -0.90791        1.87518
C         -2.23713       -2.22975        1.46771
H         -1.54911       -2.66274        0.74073
C         -2.90140       -0.34582        2.81990
H         -2.72234        0.67398        3.16482
C         -3.31147       -2.95846        1.96487
H         -3.45871       -3.98839        1.62683
C         -3.97382       -1.08893        3.31000
H         -4.64423       -0.63533        4.04517
C         -4.20960       -2.40061        2.88503
C         -5.38363       -3.18919        3.38883
H         -6.13262       -3.33924        2.59377
H         -5.88402       -2.67822        4.22324
H         -5.07826       -4.18787        3.73726
H         -1.70097        2.58111        1.44762
H         -3.11986        1.64203        0.93415
C         -2.46414        3.15466       -0.49815
H         -1.49682        3.50104       -0.89961
H         -2.99568        2.68830       -1.34829
C         -3.27115        4.36187       -0.01560
H         -2.71431        4.80896        0.82924
C         -3.36322        5.40756       -1.12054
H         -2.36399        5.71914       -1.46191
H         -3.89969        6.30678       -0.78016
H         -3.90522        5.00785       -1.99422
C         -4.65811        3.97289        0.48449
H         -5.22552        4.85821        0.81092
H         -4.61363        3.27848        1.33709
H         -5.23854        3.48259       -0.31576
H         -1.53422       -1.15700       -1.24252
H         -1.81314        0.30176       -2.16526
C         -3.53215       -0.31418       -0.96913
H         -3.74777       -0.49115        0.09434
H         -4.03975        0.63227       -1.22727
C         -4.16432       -1.45339       -1.77083
H         -3.61222       -2.37442       -1.50461
C         -5.61848       -1.64649       -1.35961
H         -5.70141       -1.84364       -0.27898
H         -6.08057       -2.48998       -1.89609
H         -6.21407       -0.74519       -1.58205
C         -4.03275       -1.24274       -3.27429
H         -4.49631       -2.06932       -3.83468
H         -2.97975       -1.17997       -3.58758
H         -4.53374       -0.30955       -3.58310
