98
Cat573.ts34.5.log	Energy: -1728341.1692856
C         -0.70206       -2.80860       -2.52046
H         -0.37139       -3.84416       -2.40325
H         -1.77113       -2.71962       -2.73876
C          0.20436       -1.90214       -3.18359
H          1.21185       -2.23621       -3.44869
H         -0.21048       -1.21221       -3.92830
H          0.18002       -0.58476       -2.29929
Ir         0.12361       -1.58573       -0.94964
O         -1.59994        1.18523       -0.46149
C         -3.34067       -0.86225       -1.28842
C         -2.35530       -0.63890        1.44667
O          0.93970        0.13555        1.67931
C          3.26786       -0.79000        0.53498
C          1.77493        1.46818       -0.63989
P          1.56358       -0.19620        0.14730
P         -1.80075       -0.48282       -0.31861
C          0.73506       -3.07683        0.04499
O          1.15808       -3.97067        0.64480
C         -2.44326        2.25799       -0.42998
C         -3.28355        2.53312        0.64824
H         -3.32140        1.85041        1.49581
C         -2.35737        3.13826       -1.52270
C         -1.43783        2.81983       -2.66109
H         -0.38680        2.80503       -2.33363
H         -1.64151        1.81740       -3.07081
H         -1.53843        3.55610       -3.47003
C         -4.08071        3.67465        0.63055
H         -4.75078        3.87416        1.46971
C         -3.15773        4.28208       -1.50833
H         -3.10391        4.97149       -2.35561
C         -4.02084        4.55322       -0.44789
H         -4.64312        5.45057       -0.46388
H         -3.51735       -1.92394       -1.04644
H         -3.02077       -0.83412       -2.34134
C         -4.57067       -0.03025       -1.09052
C         -4.84611        1.03222       -1.96160
H         -4.17286        1.22325       -2.80077
C         -5.46546       -0.26870       -0.03961
H         -5.30259       -1.11390        0.63201
C         -5.95021        1.85464       -1.76589
H         -6.13164        2.68664       -2.44967
C         -6.57397        0.55230        0.15935
H         -7.25603        0.34703        0.98799
C         -6.81568        1.62330       -0.69735
H         -7.68086        2.27121       -0.53934
H         -3.38037       -0.25198        1.54421
H         -1.67499        0.02794        1.99575
C         -2.23957       -2.03658        1.97562
C         -1.07944       -2.43275        2.65177
H         -0.27534       -1.70672        2.78729
C         -3.25420       -2.98156        1.78428
H         -4.17215       -2.69871        1.26359
C         -0.93950       -3.73377        3.12529
H         -0.02222       -4.02514        3.64160
C         -3.11476       -4.28634        2.25355
H         -3.91895       -5.00858        2.09323
C         -1.95524       -4.66705        2.92570
H         -1.84249       -5.69026        3.29153
C          1.48460        0.78494        2.74973
C          2.40186        0.12016        3.56857
H          2.68533       -0.90352        3.32000
C          1.04190        2.08164        3.06537
C          0.04508        2.79926        2.20720
H         -0.51366        2.10440        1.57007
H         -0.66978        3.36734        2.81929
H          0.54533        3.52368        1.54232
C          2.93152        0.75513        4.68708
H          3.65294        0.23058        5.31759
C          1.58405        2.69155        4.20305
H          1.25109        3.70074        4.46115
C          2.52611        2.05098        5.00309
H          2.93198        2.55705        5.88172
H          3.11896       -1.74444        1.06554
H          3.74837       -0.08397        1.22781
C          4.12157       -0.98058       -0.68925
C          5.21905       -0.14369       -0.92026
H          5.45037        0.65055       -0.20616
C          3.84641       -1.99656       -1.61523
H          2.99513       -2.65798       -1.44251
C          6.01352       -0.30527       -2.05335
H          6.86317        0.36260       -2.21434
C          4.63965       -2.15699       -2.74898
H          4.41206       -2.95707       -3.45788
C          5.72350       -1.30897       -2.97533
H          6.34574       -1.43644       -3.86458
H          0.88412        2.02106       -0.30223
H          1.60235        1.25771       -1.70406
C          3.03984        2.26155       -0.48674
C          3.74531        2.63561       -1.63804
H          3.36681        2.33035       -2.61700
C          3.55350        2.65204        0.75658
H          3.02790        2.38666        1.67473
C          4.92749        3.36586       -1.55524
H          5.45986        3.63897       -2.46949
C          4.74152        3.37581        0.84366
H          5.12294        3.66190        1.82683
C          5.43609        3.73415       -0.31070
H          6.36762        4.30070       -0.24060
