98
Cat580.ts34.5.log	Energy: -1977318.5727110
C         -0.49117       -3.40612       -1.50631
H         -0.16495       -4.34323       -1.04746
H         -1.55470       -3.39808       -1.76362
C          0.43045       -2.76096       -2.40745
H          1.44546       -3.15376       -2.51904
H          0.03359       -2.34987       -3.34309
H          0.41334       -1.22467       -1.99890
Ir         0.30985       -1.73631       -0.39466
O         -1.42778        1.10357       -0.55762
C         -3.04745       -1.05057       -1.33046
C         -2.48078       -0.48598        1.45235
O          1.56057        0.53762        1.66489
C          3.59734       -0.66416        0.21707
C          1.82082        1.29718       -1.03055
P          1.82102       -0.11953        0.15169
P         -1.65042       -0.53671       -0.21064
C          0.93696       -2.83830        1.00600
O          1.38583       -3.50605        1.83888
C         -2.24915        2.19064       -0.67663
C         -3.17259        2.55088        0.30645
H         -3.28916        1.93369        1.19476
C         -2.06839        2.99416       -1.81768
C         -1.07603        2.61854       -2.87673
H         -0.99576        1.52755       -2.98550
H         -1.35523        3.05386       -3.84656
H         -0.06688        2.98899       -2.63178
C         -3.95107        3.69395        0.14906
H         -4.68218        3.95512        0.91741
C         -2.85464        4.14271       -1.94208
H         -2.72878        4.76755       -2.83087
C         -3.79492        4.49645       -0.97784
H         -4.40413        5.39334       -1.10717
H         -2.58616       -1.17230       -2.32269
H         -3.28908       -2.06486       -0.97166
C         -4.26544       -0.18380       -1.40916
C         -5.31574       -0.29520       -0.48911
H         -5.29542       -1.08133        0.26828
C         -4.36627        0.80132       -2.40080
H         -3.57331        0.89354       -3.14632
C         -6.40345        0.57428       -0.51929
H         -7.22069        0.49302        0.19940
C         -5.44384        1.67699       -2.44900
H         -5.51222        2.45749       -3.20797
C         -6.44524        1.56243       -1.49298
F         -7.47322        2.40941       -1.52071
H         -1.91553        0.26783        2.01536
H         -3.51397       -0.12689        1.34042
C         -2.42969       -1.80187        2.16464
C         -3.40930       -2.78235        1.97272
H         -4.25823       -2.58531        1.31397
C         -1.36061       -2.09266        3.02089
H         -0.57505       -1.34732        3.16623
C         -3.33308       -4.01649        2.61358
H         -4.09448       -4.78509        2.47046
C         -1.27062       -3.31652        3.67479
H         -0.43242       -3.55162        4.33195
C         -2.25938       -4.26741        3.45800
F         -2.18025       -5.44538        4.07618
C          2.09216        1.61956        2.31808
C          3.46378        1.79982        2.49100
H          4.16521        1.07439        2.08285
C          1.17355        2.52528        2.87615
C         -0.29553        2.31031        2.69566
H         -0.53596        2.06751        1.65081
H         -0.64439        1.46276        3.30865
H         -0.86745        3.20003        2.99148
C          3.93847        2.90966        3.18620
H          5.01549        3.05031        3.30142
C          1.67592        3.62061        3.58140
H          0.96796        4.33459        4.01135
C          3.04543        3.82651        3.73292
H          3.41314        4.69850        4.27768
H          4.25228        0.21918        0.21948
H          3.70240       -1.17132        1.18843
C          3.93387       -1.59544       -0.90950
C          3.79909       -2.98148       -0.74881
H          3.49350       -3.38458        0.21837
C          4.32827       -1.11308       -2.16203
H          4.45141       -0.03921       -2.31862
C          4.04858       -3.85780       -1.80023
H          3.95066       -4.93786       -1.67760
C          4.57546       -1.97457       -3.22932
H          4.88555       -1.60164       -4.20689
C          4.42901       -3.34093       -3.03353
F          4.66378       -4.17413       -4.04607
H          2.15948        0.83429       -1.97219
H          0.75036        1.50927       -1.15143
C          2.58827        2.53711       -0.69292
C          1.93246        3.61405       -0.08126
H          0.85751        3.55077        0.10486
C          3.95985        2.65945       -0.94533
H          4.49501        1.85535       -1.45458
C          2.62354        4.75481        0.30892
H          2.11964        5.58599        0.80402
C          4.66917        3.79508       -0.56273
H          5.73946        3.89314       -0.75210
C          3.99099        4.82492        0.07484
F          4.66348        5.90827        0.46040
