100
Cat547.ts34.5.log	Energy: -1618417.8771380
C         -0.64070       -3.50223       -1.84428
H         -0.28803       -4.48121       -1.50828
H         -1.72657       -3.45293       -1.97596
C          0.18372       -2.80018       -2.79809
H          1.16228       -3.20732       -3.06690
H         -0.31002       -2.31344       -3.64697
H          0.21535       -1.28956       -2.26922
Ir         0.30874       -1.92996       -0.71594
O         -1.50640        0.86410       -0.59441
C         -3.23532       -1.31334       -0.73393
C         -1.83505       -0.58924        1.70192
O          1.19022        0.57282        1.23455
C          3.43671       -0.67527        0.38866
C          1.95647        1.05856       -1.40564
P          1.73655       -0.25211       -0.14044
P         -1.59070       -0.76881       -0.10608
C          1.09434       -3.10137        0.54547
O          1.58725       -3.78091        1.34391
C         -2.54708        1.74135       -0.59415
C         -2.88527        2.46164        0.55650
H         -2.31324        2.30815        1.47263
C         -3.25190        1.96350       -1.78079
H         -2.95919        1.41373       -2.67695
C         -3.94541        3.36461        0.53120
H         -4.22943        3.93254        1.41899
C         -4.31215        2.86423       -1.81196
H         -4.87930        3.04622       -2.72667
C         -4.65276        3.54886       -0.65075
F         -5.67010        4.40926       -0.67553
H         -3.17274       -2.41495       -0.71342
H         -3.24054       -1.04155       -1.80256
C         -4.50312       -0.85532       -0.02308
H         -4.47278       -1.20766        1.02089
H         -4.54820        0.24450        0.02890
C         -5.79882       -1.36270       -0.66434
H         -5.72435       -2.46397       -0.74475
C         -6.98762       -1.03480        0.23197
H         -6.86910       -1.47178        1.23579
H         -7.92956       -1.41523       -0.19245
H         -7.09349        0.05624        0.35354
C         -6.01071       -0.79920       -2.06555
H         -6.95088       -1.16938       -2.50256
H         -5.19875       -1.07608       -2.75495
H         -6.06370        0.30182       -2.03581
H         -2.70589        0.04908        1.91813
H         -0.92938       -0.05124        2.02009
C         -1.94623       -1.93341        2.41457
H         -2.98934       -2.29051        2.36709
H         -1.33824       -2.68572        1.88052
C         -1.48838       -1.89457        3.87639
H         -1.98399       -1.03175        4.36133
C         -1.92561       -3.15973        4.60497
H         -3.02005       -3.28249        4.58396
H         -1.60755       -3.14703        5.65907
H         -1.47925       -4.05150        4.13431
C          0.02187       -1.70405        3.98503
H          0.33207       -1.60095        5.03655
H          0.37217       -0.81330        3.44212
H          0.55033       -2.57197        3.55854
C          1.50859        1.85312        1.57248
C          0.76155        2.91218        1.04946
H         -0.06115        2.68625        0.37055
C          2.55102        2.10707        2.46709
H          3.10563        1.26755        2.88994
C          1.08285        4.22438        1.38311
H          0.51964        5.06764        0.97917
C          2.87480        3.41876        2.80554
H          3.68829        3.64475        3.49731
C          2.14343        4.46253        2.25021
F          2.45892        5.71868        2.56531
H          3.31823       -1.30309        1.28790
H          3.94847        0.25052        0.69522
C          4.21056       -1.42676       -0.68567
H          3.59024       -2.27170       -1.03038
H          4.35712       -0.77723       -1.56862
C          5.57367       -1.95368       -0.23170
H          5.39670       -2.60117        0.64757
C          6.19642       -2.81124       -1.32695
H          5.53346       -3.64297       -1.61105
H          7.15758       -3.24028       -1.00413
H          6.38751       -2.21182       -2.23299
C          6.51942       -0.83382        0.18829
H          7.49818       -1.23452        0.49426
H          6.12494       -0.25083        1.03424
H          6.69330       -0.13481       -0.64768
H          0.97096        1.55117       -1.46427
H          2.04979        0.49054       -2.34471
C          3.09330        2.06307       -1.24936
H          3.17064        2.40115       -0.20596
H          4.05591        1.57245       -1.47952
C          2.94247        3.30316       -2.13390
H          1.96270        3.75528       -1.88868
C          4.02172        4.32485       -1.79777
H          3.98403        4.60943       -0.73449
H          3.90838        5.24155       -2.39692
H          5.02638        3.91725       -2.00048
C          2.94619        2.96103       -3.61924
H          2.83401        3.86636       -4.23555
H          2.12794        2.27618       -3.88866
H          3.89601        2.47895       -3.90685
