84
Cat539.ts34.5.log	Energy: -1893673.5614202
C         -1.49021       -1.47595       -3.61660
H         -1.39985       -2.51818       -3.93311
H         -2.51831       -1.10224       -3.61333
C         -0.42788       -0.57968       -3.98570
H          0.47118       -0.97452       -4.46601
H         -0.69319        0.42265       -4.34150
H         -0.11700        0.25568       -2.66556
Ir        -0.36759       -1.15912       -1.79558
O         -2.58991        1.27389       -0.70909
O         -3.56317       -0.99081       -0.93463
O         -1.92773       -0.49907        1.01490
O          1.98949       -1.72146        0.47558
O          2.71611       -0.05532       -1.32550
O          1.11947        0.68930        0.49299
P          1.37501       -0.57170       -0.52530
P         -2.10165       -0.32764       -0.61820
C         -0.07234       -3.02687       -1.50995
O          0.10834       -4.14545       -1.31796
C         -1.68581        2.29971       -0.78315
C         -1.45029        2.90472       -2.01800
H         -1.97389        2.52896       -2.89894
C         -1.02910        2.75604        0.36030
H         -1.19904        2.26069        1.31719
C         -0.56810        3.97856       -2.11198
H         -0.36946        4.47337       -3.06427
C         -0.14437        3.82636        0.27237
H          0.39185        4.18979        1.15044
C          0.07058        4.42536       -0.96181
F          0.92662        5.44898       -1.05151
C         -4.79124       -0.68957       -0.38615
C         -5.47264        0.46649       -0.76063
H         -5.01484        1.14748       -1.47765
C         -5.35004       -1.58996        0.51856
H         -4.79254       -2.48969        0.78277
C         -6.71284        0.73771       -0.18595
H         -7.24751        1.64763       -0.46911
C         -6.58795       -1.30688        1.08714
H         -7.01880       -2.00253        1.81068
C         -7.27025       -0.13978        0.74293
H         -8.23968        0.08220        1.19430
C         -2.81819       -0.33210        2.04800
C         -2.85323       -1.34724        3.00424
H         -2.20735       -2.21706        2.86860
C         -3.62597        0.79819        2.18140
H         -3.60149        1.57929        1.42317
C         -3.71860       -1.24185        4.08984
H         -3.74846       -2.04130        4.83412
C         -4.49516        0.88434        3.26614
H         -5.14306        1.75894        3.35827
C         -4.54802       -0.12889        4.22214
H         -5.23343       -0.05080        5.06867
C          3.31974       -1.94480        0.74411
C          3.86266       -1.53960        1.96223
H          3.23396       -1.02634        2.69008
C          4.10334       -2.61375       -0.19611
H          3.65287       -2.92898       -1.13847
C          5.20538       -1.78926        2.23446
H          5.65733       -1.48050        3.17850
C          5.44667       -2.86063        0.07165
H          6.08441       -3.37777       -0.64724
C          5.98251       -2.44104        1.28452
F          7.26865       -2.67475        1.54311
C          3.44550        1.07964       -1.05859
C          4.72768        0.96296       -0.52680
H          5.13162       -0.02679       -0.31093
C          2.89993        2.32975       -1.34812
H          1.89077        2.39064       -1.75817
C          5.46217        2.11932       -0.26842
H          6.46663        2.03170        0.15227
C          3.63832        3.47894       -1.07606
H          3.19703        4.45659       -1.27987
C          4.92028        3.37706       -0.53319
H          5.49747        4.27927       -0.31918
C          1.46378        0.83399        1.81137
C          2.44629        1.75856        2.16360
H          2.95513        2.32580        1.38360
C          0.78729        0.09743        2.78377
H          0.01335       -0.60366        2.47186
C          2.76625        1.92647        3.50965
H          3.54058        2.64485        3.78890
C          1.11894        0.27463        4.12509
H          0.59055       -0.30243        4.88752
C          2.11151        1.18396        4.49273
H          2.36923        1.31918        5.54544
