90
Cat512.ts34.5.log	Energy: -2067471.6018169
C          0.75688       -1.54030       -3.61291
H          0.33192       -1.28940       -4.58824
H          1.84435       -1.45004       -3.56103
C          0.12809       -2.59545       -2.86962
H         -0.79239       -3.04835       -3.24685
H          0.77924       -3.29906       -2.33582
H         -0.02176       -2.02654       -1.39983
Ir        -0.38028       -0.52754       -2.06920
O          2.86050       -0.39177       -0.91027
O          1.92970        1.80744       -1.59275
O          1.19514        0.81800        0.59194
O         -2.07602        0.62609        0.66539
O         -3.53534        0.08521       -1.34652
O         -2.63365       -1.69172        0.14146
P         -2.11232       -0.35450       -0.66642
P          1.38527        0.38190       -0.99159
C         -1.16907        0.66985       -3.32974
O         -1.62963        1.41298       -4.07498
C          3.00322       -1.75224       -0.91308
C          3.83543       -2.32328       -1.87693
H          4.33570       -1.66969       -2.59436
C          2.35784       -2.56678        0.01623
H          1.72504       -2.12520        0.78689
C          4.00847       -3.70203       -1.91562
H          4.65984       -4.13619       -2.67911
C          2.53762       -3.94818       -0.04120
H          2.02778       -4.57864        0.69240
C          3.35868       -4.54467       -1.00294
C          3.56661       -6.03063       -1.04217
H          4.55081       -6.30427       -0.62731
H          3.53156       -6.41540       -2.07258
H          2.80302       -6.56022       -0.45520
C          2.88593        2.56455       -0.95612
C          4.22961        2.40766       -1.29082
H          4.50703        1.67399       -2.04821
C          2.49603        3.48386        0.01672
H          1.43911        3.57190        0.26870
C          5.19533        3.17834       -0.64709
H          6.25552        3.08055       -0.88702
C          3.45849        4.25408        0.66261
H          3.18407        4.97571        1.43414
C          4.79690        4.09087        0.32327
F          5.72027        4.82575        0.94232
C          1.83195        0.34021        1.70443
C          1.07568       -0.37490        2.63391
H          0.01693       -0.54584        2.43384
C          3.19133        0.56898        1.92367
H          3.77310        1.12810        1.19091
C          1.67726       -0.87190        3.78742
H          1.11439       -1.45070        4.52127
C          3.79451        0.07159        3.07534
H          4.85626        0.23156        3.27056
C          3.03237       -0.64299        3.99197
F          3.61562       -1.12203        5.09082
C         -1.64709        1.92409        0.71088
C         -1.22412        2.40731        1.94694
H         -1.22024        1.73379        2.80507
C         -1.65390        2.76712       -0.40109
H         -1.99672        2.40738       -1.37167
C         -0.80551        3.72784        2.06634
H         -0.47324        4.09319        3.04177
C         -1.22634        4.08583       -0.26380
H         -1.23089        4.73345       -1.14464
C         -0.79382        4.59416        0.96583
C         -0.30565        6.00891        1.08652
H         -0.20515        6.31202        2.13821
H         -0.99020        6.71566        0.59350
H          0.68081        6.13133        0.60822
C         -4.69189        0.25586       -0.61157
C         -5.04957        1.53038       -0.17758
H         -4.39758        2.37738       -0.39615
C         -5.50583       -0.84301       -0.34135
H         -5.19976       -1.82987       -0.68914
C         -6.23279        1.71065        0.53375
H         -6.53892        2.69701        0.88622
C         -6.68916       -0.66630        0.36982
H         -7.34823       -1.50641        0.59545
C         -7.03717        0.60913        0.79970
F         -8.16884        0.77900        1.48203
C         -2.06778       -2.16133        1.29769
C         -2.50994       -1.67037        2.52722
H         -3.28160       -0.90005        2.54094
C         -1.08609       -3.14976        1.23845
H         -0.76600       -3.52866        0.26696
C         -1.95312       -2.15736        3.70572
H         -2.27391       -1.78946        4.68189
C         -0.52469       -3.63675        2.41682
H          0.25277       -4.40234        2.40755
C         -0.96189       -3.12933        3.63308
F         -0.40349       -3.57045        4.76176
