76
Cat584.ts34.5.log	Energy: -1873373.5396237
C         -0.38494       -0.73877       -3.54139
H          0.00535       -0.09750       -4.33625
H         -0.10923       -1.79111       -3.65559
C         -1.70400       -0.43837       -3.04773
H         -2.22539        0.44786       -3.42031
H         -2.39066       -1.27729       -2.87306
H         -1.59711       -0.47746       -1.49709
Ir        -0.06460        0.21693       -1.62916
O          0.04748       -2.05851        0.98545
C          0.57088       -3.29952       -1.41070
C          2.46951       -1.56721        0.17136
O         -0.03046        1.78120        1.47087
C         -0.54204        3.53599       -0.54225
C         -2.48635        1.47391        0.57740
P         -0.76499        1.75135       -0.05820
P          0.75112       -1.66657       -0.51745
C          1.27840        1.37159       -2.26429
O          2.11654        2.08355       -2.63018
C         -1.25564       -1.90979        1.28885
C         -2.28970       -2.21382        0.39452
H         -2.05752       -2.61766       -0.59104
C         -1.57586       -1.44253        2.56849
H         -0.76039       -1.23263        3.26101
C         -3.61735       -1.99106        0.75277
H         -4.42368       -2.20276        0.04883
C         -2.89876       -1.22912        2.93459
H         -3.14691       -0.84229        3.92408
C         -3.91568       -1.47790        2.01255
Cl        -5.56044       -1.11337        2.42715
H         -0.37114       -3.15173       -1.97113
C          1.68432       -3.47513       -2.43935
H          1.41485       -4.26381       -3.15954
H          1.87621       -2.55146       -3.00589
H          2.62548       -3.77758       -1.95709
C          0.39926       -4.53119       -0.53050
H         -0.42325       -4.41748        0.18892
H          0.17746       -5.40758       -1.16142
H          1.30966       -4.75600        0.04095
H          2.30930       -0.73864        0.87766
C          2.94061       -2.76846        0.98085
H          3.83696       -2.48357        1.55531
H          2.17468       -3.10398        1.69312
H          3.22077       -3.61623        0.33708
C          3.51192       -1.10292       -0.83696
H          3.16923       -0.22725       -1.40410
H          4.42847       -0.81835       -0.29698
H          3.78254       -1.89257       -1.55214
C          1.26483        1.50551        1.73984
C          1.54013        0.79514        2.91348
H          0.70661        0.50286        3.55299
C          2.32332        1.91380        0.92259
H          2.13656        2.48433        0.01428
C          2.84588        0.45248        3.24363
H          3.05963       -0.12302        4.14556
C          3.63309        1.57546        1.25033
H          4.45577        1.87567        0.59997
C          3.88839        0.82581        2.39530
Cl         5.50997        0.32061        2.74966
H          0.54465        3.56477       -0.73783
C         -1.23463        3.86808       -1.85955
H         -0.87423        4.83819       -2.23582
H         -1.02686        3.10380       -2.62309
H         -2.32456        3.94616       -1.73718
C         -0.84932        4.54998        0.55147
H         -0.41017        4.25993        1.51607
H         -0.44252        5.53493        0.27209
H         -1.93315        4.67404        0.69077
H         -2.42997        0.39175        0.76754
C         -2.85694        2.14885        1.89174
H         -3.79026        1.69947        2.26718
H         -2.07934        2.00886        2.65290
H         -3.03444        3.22668        1.77070
C         -3.55335        1.69112       -0.48924
H         -3.27033        1.26005       -1.45960
H         -4.48922        1.20905       -0.16528
H         -3.76789        2.76006       -0.63810
