62
Cat556.ts34.5.log	Energy: -1337574.4526419
C          1.02692       -3.70414        0.25261
H          0.55687       -4.53152       -0.28552
H          2.09420       -3.57715        0.05022
C          0.55438       -3.42487        1.58084
H         -0.31156       -3.96472        1.97294
H          1.29352       -3.18787        2.35378
H          0.40090       -1.81181        1.62903
Ir        -0.15954       -1.90677        0.05474
O          1.54166        0.90871        0.00821
O          3.09407       -1.14586       -0.18183
O          1.88948       -0.34345       -2.17693
O         -1.81036        0.86113       -0.65390
O         -3.22069       -0.64553        0.69445
O         -1.32103        0.56484        1.87503
P         -1.63269       -0.27575        0.51696
P          1.60529       -0.64193       -0.58931
C         -1.29361       -2.67066       -1.27459
O         -1.97219       -3.12893       -2.08697
C          2.61678        1.74709        0.12450
C          3.04784        2.50319       -0.96337
H          2.53461        2.39390       -1.91979
C          3.23738        1.83860        1.38024
C          2.74337        0.99070        2.51162
H          1.64740        1.04589        2.59720
H          2.98572       -0.06902        2.32969
H          3.19882        1.29240        3.46461
C          4.12958        3.36885       -0.81389
H          4.47260        3.96173       -1.66495
C          4.31676        2.71742        1.50335
H          4.81544        2.80666        2.47248
C          4.76609        3.47483        0.42114
H          5.61320        4.15309        0.54604
C          4.31119       -0.85978       -0.85441
H          4.17067       -0.87296       -1.94385
H          4.70472        0.12146       -0.54939
H          5.02492       -1.64328       -0.56534
C          0.80926       -0.01318       -3.02508
H         -0.03411       -0.70797       -2.88054
H          0.45006        1.01085       -2.83089
H          1.17156       -0.08345       -4.05920
C         -2.63587        1.96382       -0.60391
C         -4.00637        1.82054       -0.80876
H         -4.40948        0.82054       -0.96786
C         -2.04619        3.22094       -0.40108
C         -0.56687        3.34548       -0.21032
H         -0.19742        2.66060        0.56600
H         -0.02565        3.06806       -1.12823
H         -0.28701        4.37413        0.05346
C         -4.82568        2.94683       -0.79180
H         -5.90119        2.83654       -0.94870
C         -2.89418        4.33316       -0.39033
H         -2.45665        5.32246       -0.23028
C         -4.26945        4.20622       -0.57838
H         -4.90573        5.09403       -0.56334
C         -3.60562       -1.76300        1.46746
H         -2.92605       -2.61342        1.28667
H         -3.60119       -1.52247        2.54393
H         -4.62527       -2.03694        1.16538
C         -2.24004        1.41710        2.53807
H         -2.01277        2.46868        2.31049
H         -3.27716        1.20598        2.23915
H         -2.12985        1.24973        3.61932
