82
Cat517.ts34.5.log	Energy: -1346033.2729359
C          0.67526       -3.89642       -0.93500
H          1.34758       -4.59638       -0.43112
H         -0.36643       -4.23340       -0.95507
C          1.18613       -3.22642       -2.10742
H          2.23594       -3.35399       -2.38561
H          0.53215       -3.15195       -2.98399
H          0.72076       -1.70888       -1.93703
Ir         1.07138       -1.87560       -0.29970
O         -1.56363        0.14545       -0.58751
C         -2.47026       -2.43570       -0.09736
C         -1.36376       -0.75923        1.98382
O          1.15076        1.15840        0.96327
C          3.63954        0.52924        0.09832
C          1.54998        1.23366       -1.79931
P          1.86580        0.26039       -0.27463
P         -1.08625       -1.26431        0.24128
C          2.24370       -2.38912        1.09511
O          2.95738       -2.66665        1.96382
C         -2.83888        0.61899       -0.66390
C         -3.36567        1.44831        0.32864
H         -2.75020        1.71298        1.18979
C         -3.61817        0.30764       -1.78185
H         -3.18687       -0.32027       -2.56397
C         -4.67032        1.92488        0.21405
H         -5.07280        2.56631        1.00308
C         -4.91881        0.78873       -1.88108
H         -5.51936        0.52740       -2.75716
C         -5.47464        1.60110       -0.88336
C         -6.87433        2.12907       -1.01088
H         -6.92699        2.94358       -1.75236
H         -7.24264        2.52847       -0.05540
H         -7.57174        1.34488       -1.34255
H         -2.59972       -2.42608       -1.19386
H         -2.04449       -3.42701        0.13393
C         -3.81096       -2.26981        0.61169
H         -4.20008       -1.25058        0.46878
H         -3.66596       -2.39220        1.69759
C         -4.84180       -3.27488        0.12092
H         -5.04802       -3.13638       -0.95261
H         -4.49324       -4.31103        0.26006
H         -5.79583       -3.16706        0.65911
H         -0.70889        0.11627        2.12105
H         -2.40752       -0.43214        2.11895
C         -1.00056       -1.84951        2.98406
H          0.03292       -2.17751        2.78869
H         -1.63475       -2.73909        2.82218
C         -1.13613       -1.38262        4.42496
H         -0.48282       -0.51756        4.62064
H         -2.16919       -1.07571        4.65558
H         -0.85750       -2.17843        5.13237
C          1.03714        2.51703        0.99474
C         -0.06319        3.13224        0.39333
H         -0.80338        2.50663       -0.10637
C          1.98923        3.29325        1.65547
H          2.83299        2.80077        2.14254
C         -0.18474        4.51717        0.42753
H         -1.04605        4.98674       -0.05628
C          1.85245        4.67973        1.68185
H          2.60846        5.28032        2.19549
C          0.77103        5.31924        1.06541
C          0.61665        6.81191        1.11503
H          1.57372        7.30962        1.32687
H         -0.09226        7.11232        1.90477
H          0.22945        7.20855        0.16460
H          3.84370        1.61255        0.13278
H          3.78405        0.13601        1.11876
C          4.56889       -0.18118       -0.87777
H          4.42124        0.22334       -1.89445
H          4.27307       -1.24256       -0.92996
C          6.03316       -0.06068       -0.48620
H          6.35568        0.99228       -0.44678
H          6.21243       -0.50011        0.50783
H          6.68410       -0.58275       -1.20382
H          1.75649        0.51802       -2.61258
H          0.45589        1.37456       -1.81349
C          2.29955        2.54020       -2.03742
H          3.37597        2.32951       -2.15228
H          2.20993        3.20403       -1.16476
C          1.78728        3.26633       -3.27185
H          1.86854        2.63723       -4.17295
H          0.72674        3.53976       -3.15304
H          2.35234        4.19252       -3.45650
