56
Cat527.ts34.5.log	Energy: -1412757.5873162
C          3.42389       -1.29630       -1.65934
H          3.29873       -1.21489       -2.74221
H          4.29595       -0.76224       -1.27208
C          3.04362       -2.54093       -1.04692
H          2.55805       -3.31147       -1.65159
H          3.69993       -2.95621       -0.27355
H          2.19901       -2.12841        0.23149
Ir         1.54882       -0.86546       -0.67433
O          1.52560        1.92823        1.29661
O          3.22493        0.36735        2.08564
O          3.68289        1.55540       -0.01660
O         -1.72405       -0.70246       -0.65155
O         -0.99644       -2.69846        0.62387
O         -0.65563       -0.44676        1.70695
P         -0.46180       -1.18329        0.26448
P          2.48160        0.70785        0.66631
C          0.74941       -0.20896       -2.28069
O          0.28438        0.23629       -3.23362
C          0.44030        2.45585        0.66860
C         -0.68529        2.73664        1.44528
H         -0.65438        2.50945        2.51170
C          0.43439        2.73528       -0.69936
H          1.32306        2.53125       -1.29802
C         -1.81886        3.28776        0.85911
H         -2.71225        3.51311        1.44442
C         -0.70806        3.26451       -1.29608
H         -0.74409        3.46320       -2.36832
C         -1.81867        3.53304       -0.50962
F         -2.92960        4.01053       -1.08188
C          2.52197       -0.35053        3.07219
H          1.73057        0.26945        3.52320
H          2.05615       -1.25698        2.64732
H          3.24418       -0.64255        3.84646
C          4.37758        2.57603        0.68007
H          3.67680        3.31886        1.09163
H          4.97330        2.15158        1.50140
H          5.04177        3.06335       -0.04556
C         -3.07174       -0.70861       -0.39098
C         -3.75059        0.50595       -0.49012
H         -3.19203        1.40677       -0.74017
C         -3.76679       -1.88518       -0.10598
H         -3.22224       -2.82717       -0.05674
C         -5.12399        0.55597       -0.27239
H         -5.67322        1.49630       -0.34566
C         -5.14080       -1.83511        0.11804
H         -5.70969       -2.73824        0.34653
C         -5.80322       -0.61642        0.03731
F         -7.11798       -0.57283        0.25344
C         -0.16043       -3.60315        1.30636
H          0.78760       -3.75450        0.76382
H          0.06664       -3.25538        2.32882
H         -0.69505       -4.56052        1.36739
C         -1.79850       -0.55247        2.53494
H         -2.55388        0.19439        2.24808
H         -2.24817       -1.55542        2.47899
H         -1.47365       -0.35777        3.56707
