98
Cat506.ts34.5.log	Energy: -1728343.6231049
C         -0.43970       -3.69748       -0.60107
H          0.02170       -4.42856        0.06846
H         -1.52400       -3.80896       -0.70536
C          0.32051       -3.29453       -1.75509
H          1.34931       -3.64451       -1.88119
H         -0.21034       -3.20155       -2.70964
H          0.19943       -1.70972       -1.81575
Ir         0.27735       -1.71619       -0.13018
O         -2.17625        0.35996       -1.21570
C         -3.22125       -1.85816       -0.07883
C         -2.15640        0.24438        1.52936
O          2.25750        0.61294        1.21377
C          3.19440       -0.15898       -1.24931
C          1.02309        1.65909       -0.92576
P          1.67002        0.08638       -0.27425
P         -1.79276       -0.72691        0.02555
C          1.01317       -2.24794        1.53069
O          1.43871       -2.54837        2.56353
C         -3.05466        1.39949       -1.10580
C         -2.64793        2.59192       -0.50144
H         -1.64187        2.65887       -0.08677
C         -4.34417        1.29659       -1.62512
H         -4.66280        0.36210       -2.08844
C         -3.52693        3.66430       -0.42136
H         -3.19457        4.58674        0.06399
C         -5.21510        2.38277       -1.53907
H         -6.22462        2.28923       -1.94934
C         -4.82789        3.58365       -0.93764
C         -5.76205        4.75652       -0.85532
H         -5.79998        5.16961        0.16472
H         -6.78509        4.47797       -1.14533
H         -5.43926        5.57356       -1.52181
C         -3.75371       -2.18826       -1.32912
H         -3.38595       -1.67301       -2.21997
C         -3.67355       -2.55743        1.04741
H         -3.25148       -2.33424        2.03083
C         -4.73639       -3.16921       -1.44483
H         -5.14279       -3.40949       -2.43147
C         -4.65277       -3.53664        0.92356
H         -4.99497       -4.06779        1.81651
C         -5.20833       -3.85763       -0.32263
C         -6.28119       -4.90023       -0.43905
H         -7.24041       -4.52663       -0.04378
H         -6.44590       -5.19505       -1.48498
H         -6.02639       -5.80433        0.13475
C         -3.46407        0.61201        1.88008
H         -4.30841        0.26431        1.28075
C         -1.09497        0.71270        2.30900
H         -0.07109        0.42979        2.05294
C         -3.69479        1.43172        2.97750
H         -4.72070        1.71446        3.22962
C         -1.33392        1.53826        3.40470
H         -0.48831        1.89671        3.99806
C         -2.63433        1.91258        3.75792
C         -2.89558        2.78087        4.95300
H         -3.22007        2.17385        5.81468
H         -1.99386        3.33036        5.25804
H         -3.69424        3.51070        4.75258
C          3.57972        0.65974        1.56917
C          4.41642        1.67036        1.09710
H          4.02087        2.42287        0.41330
C          4.08132       -0.31055        2.43607
H          3.41525       -1.09782        2.79284
C          5.75177        1.70055        1.48965
H          6.40139        2.49185        1.10521
C          5.41716       -0.26238        2.82312
H          5.80161       -1.03030        3.50045
C          6.27868        0.73870        2.35814
C          7.71282        0.79164        2.79978
H          7.81166        1.30415        3.77160
H          8.33731        1.33696        2.07742
H          8.13438       -0.21723        2.92149
C          3.85641       -1.38706       -1.12479
H          3.40765       -2.16641       -0.50140
C          3.75006        0.82893       -2.06689
H          3.24646        1.79175       -2.17983
C          5.05844       -1.60843       -1.78378
H          5.56900       -2.56825       -1.66456
C          4.94612        0.59192       -2.74003
H          5.36610        1.37252       -3.38036
C          5.62471       -0.62327       -2.60499
C          6.91749       -0.87925       -3.32148
H          6.81395       -1.70550       -4.04313
H          7.25799        0.00843       -3.87233
H          7.71133       -1.16709       -2.61443
C          1.13973        2.85974       -0.22136
H          1.62033        2.86293        0.75871
C          0.37859        1.66021       -2.16881
H          0.24664        0.72156       -2.71208
C          0.63145        4.04191       -0.75990
H          0.72276        4.97247       -0.19271
C         -0.11728        2.84315       -2.70018
H         -0.62794        2.82471       -3.66659
C         -0.00632        4.05485       -2.00370
C         -0.62240        5.30681       -2.55081
H         -1.71235        5.29697       -2.37927
H         -0.21524        6.20604       -2.06719
H         -0.46501        5.39524       -3.63605
