112
Cat538.ts34.5.log	Energy: -2279438.3753814
C          0.50235       -3.57204        0.25816
H         -0.04040       -4.28791       -0.36651
H          1.58467       -3.74013        0.28662
C         -0.14807       -3.14266        1.47403
H         -1.16924       -3.47100        1.69721
H          0.47129       -3.08529        2.37901
H          0.01908       -1.60168        1.52261
Ir        -0.20321       -1.58545       -0.14551
O          1.94262        0.76099        0.99615
C          3.14953       -1.64712        0.23012
C          2.49206        0.47049       -1.63271
O         -2.73022        0.19145       -1.26446
C         -3.23173       -0.54968        1.29571
C         -1.36990        1.67266        0.66329
P         -1.88083       -0.01844        0.15347
P          1.81139       -0.44607       -0.17938
C         -0.87891       -2.01399       -1.85244
O         -1.28988       -2.26885       -2.90522
C          2.82239        1.79756        1.00383
C          3.93840        1.76176        1.84202
H          4.10876        0.86507        2.43723
C          2.57852        2.92479        0.21648
H          1.68726        2.94653       -0.41082
C          4.81406        2.84363        1.88862
H          5.69351        2.83980        2.53567
C          3.45473        4.00571        0.25187
H          3.28409        4.89508       -0.35737
C          4.56449        3.95080        1.08605
F          5.40809        4.98799        1.12339
C          3.60176       -2.48409       -0.81116
O          3.09540       -2.20661       -2.02636
C          3.39386       -3.02133       -3.12095
H          2.82747       -2.61630       -3.96892
H          4.47038       -2.99997       -3.36617
H          3.08414       -4.06643       -2.94722
C          3.54661       -1.97327        1.53741
O          3.01512       -1.24559        2.55206
C          3.29445       -1.61503        3.87045
H          2.73237       -0.92615        4.51417
H          4.36835       -1.52264        4.11150
H          2.97175       -2.64916        4.08512
C          4.44292       -3.02584        1.77934
H          4.76516       -3.25821        2.79312
C          4.49209       -3.53635       -0.58098
H          4.84255       -4.15959       -1.40280
C          4.91797       -3.78673        0.71899
H          5.61581       -4.60455        0.91245
C          3.87586        0.71167       -1.78649
O          4.66641        0.32089       -0.77549
C          6.03701        0.59010       -0.79885
H          6.44115        0.19869        0.14327
H          6.54051        0.08413       -1.64084
H          6.23659        1.67407       -0.85105
C          1.63078        0.94192       -2.64610
O          0.31412        0.82818       -2.43738
C         -0.58408        1.03835       -3.49520
H         -1.57400        0.80409       -3.09161
H         -0.35883        0.37234       -4.34482
H         -0.56877        2.08706       -3.83935
C          2.14433        1.54073       -3.80815
H          1.47308        1.88061       -4.59484
C          4.38823        1.33046       -2.93153
H          5.45729        1.50832       -3.03726
C          3.51313        1.72416       -3.93678
H          3.90892        2.20120       -4.83694
C         -4.03788        0.52618       -1.39442
C         -4.69162        1.42839       -0.55109
H         -4.15890        1.88853        0.28254
C         -4.72787       -0.06900       -2.45330
H         -4.19227       -0.78485       -3.07963
C         -6.03299        1.73230       -0.77331
H         -6.56760        2.42968       -0.12566
C         -6.06454        0.24259       -2.68263
H         -6.62249       -0.20986       -3.50460
C         -6.70326        1.14091       -1.83617
F         -7.98928        1.43987       -2.04814
C         -3.68830        0.12618        2.44491
O         -3.36996        1.42703        2.55766
C         -3.51586        2.08602        3.78175
H         -3.03364        3.06518        3.66249
H         -4.57709        2.23621        4.04713
H         -3.01646        1.53666        4.59826
C         -3.76085       -1.83701        1.04629
O         -3.46311       -2.35817       -0.14921
C         -3.67408       -3.71508       -0.41437
H         -3.21606       -3.90847       -1.39236
H         -4.74984       -3.95762       -0.46361
H         -3.19194       -4.35641        0.34318
C         -4.55771       -2.49599        1.98889
H         -4.93478       -3.49933        1.79387
C         -4.48379       -0.52689        3.39537
H         -4.81225       -0.00533        4.29362
C         -4.89170       -1.83576        3.16542
H         -5.51632       -2.34056        3.90639
C         -0.69267        1.74837        1.89438
O         -0.69212        0.60883        2.60776
C          0.20978        0.45064        3.66799
H          0.10223       -0.58792        4.00720
H          1.24206        0.61505        3.32432
H         -0.02969        1.12396        4.51005
C         -1.45362        2.84117       -0.11641
O         -2.09237        2.76123       -1.29847
C         -2.28916        3.91098       -2.06593
H         -2.87193        3.59985       -2.94243
H         -1.33383        4.34884       -2.40608
H         -2.85873        4.68025       -1.51581
C         -0.89230        4.04314        0.34346
H         -0.96343        4.94947       -0.25590
C         -0.11529        2.93516        2.34906
H          0.42623        2.96736        3.29338
C         -0.23026        4.07635        1.56462
H          0.22183        5.01088        1.90443
