86
Cat563.ts34.5.log	Energy: -2783025.0183773
C         -1.67993       -2.91409       -1.68219
H         -1.57334       -3.91063       -1.24500
H         -2.71878       -2.60955       -1.84282
C         -0.69298       -2.51292       -2.64676
H          0.17509       -3.15111       -2.83559
H         -1.03813       -1.99506       -3.54953
H         -0.29280       -1.05576       -2.24046
Ir        -0.41610       -1.51731       -0.62258
O         -2.41450        1.37065       -1.12957
C         -3.77625       -0.70019       -0.39563
C         -2.24873        0.67854        1.49382
O          1.65456       -0.06156        1.45030
C          3.08918       -1.53067       -0.42007
C          2.06098        1.03883       -1.04028
P          1.58865       -0.49371       -0.16533
P         -2.09784       -0.00008       -0.20383
C         -0.21292       -2.68124        0.85546
O         -0.12720       -3.38264        1.76904
C         -1.61230        2.45543       -1.30471
C         -0.68419        2.88173       -0.35374
H         -0.53389        2.30360        0.55789
C         -1.80903        3.17584       -2.49690
C         -2.80558        2.68953       -3.50370
H         -2.78288        3.30541       -4.41295
H         -2.61071        1.64257       -3.78466
H         -3.82922        2.72005       -3.09598
C          0.03767        4.05373       -0.57059
H          0.75796        4.38591        0.18013
C         -1.06583        4.34188       -2.68798
H         -1.21023        4.91025       -3.61107
C         -0.15228        4.79081       -1.73477
H          0.42275        5.70128       -1.91325
C         -4.64748       -0.31394       -1.41647
H         -4.35627        0.48471       -2.09951
C         -4.15856       -1.72730        0.47680
H         -3.47812       -2.04914        1.27044
C         -5.88654       -0.93686       -1.56295
H         -6.57162       -0.63815       -2.35813
C         -5.39246       -2.35051        0.34374
H         -5.69539       -3.14649        1.02568
C         -6.25252       -1.95023       -0.68127
Cl        -7.78974       -2.72736       -0.85779
C         -1.43061        0.20957        2.52205
H         -0.66718       -0.53888        2.30313
C         -3.19880        1.67195        1.76761
H         -3.83976        2.04437        0.96448
C         -1.55905        0.71393        3.81527
H         -0.92248        0.34931        4.62305
C         -3.32510        2.19400        3.04802
H         -4.05609        2.97335        3.26890
C         -2.50242        1.70688        4.06737
Cl        -2.65396        2.35584        5.66429
C          2.70660        0.20224        2.28708
C          3.66033       -0.77262        2.58172
H          3.58196       -1.75653        2.12037
C          2.73063        1.45949        2.91867
C          1.65128        2.46496        2.65881
H          1.57854        2.70934        1.58904
H          0.66633        2.07479        2.95671
H          1.83735        3.39359        3.21467
C          4.69291       -0.48515        3.47154
H          5.44028       -1.25035        3.69292
C          3.77694        1.71622        3.80949
H          3.81181        2.68946        4.30669
C          4.75944        0.76504        4.08027
H          5.56585        0.99675        4.77940
C          2.94858       -2.92380       -0.37892
H          1.94980       -3.35055       -0.25958
C          4.36843       -0.99671       -0.62850
H          4.51476        0.08135       -0.69738
C          4.05033       -3.76413       -0.49727
H          3.93437       -4.84830       -0.45742
C          5.47867       -1.82408       -0.75698
H          6.47252       -1.40323       -0.91636
C          5.31516       -3.20665       -0.68058
Cl         6.69247       -4.23979       -0.83283
C          2.99417        1.94393       -0.51648
H          3.45420        1.76795        0.45812
C          1.49229        1.30665       -2.28928
H          0.73628        0.62743       -2.68887
C          3.35141        3.08737       -1.22464
H          4.06824        3.79867       -0.81161
C          1.85007        2.43750       -3.01312
H          1.39175        2.65154       -3.97893
C          2.77611        3.32541       -2.47110
Cl         3.18690        4.76412       -3.33906
