102
Cat561.ts34.5.log	Energy: -1917014.9855123
C         -0.53155       -0.72999       -3.50816
H         -0.33764       -1.69242       -3.99048
H         -1.57778       -0.41419       -3.57794
C          0.49749        0.27648       -3.62012
H          1.45633        0.01596       -4.07687
H          0.19658        1.30223       -3.86557
H          0.58890        0.91984       -2.16554
Ir         0.38377       -0.63028       -1.55666
O         -1.59643       -0.22107        1.26277
C         -2.06015        1.72099       -0.38309
C         -3.07210       -0.90320       -0.88061
O          1.92108       -0.69811        1.57233
C          3.51690        0.40065       -0.31928
C          1.25133        1.69158        0.82656
P          1.77529        0.10160        0.11443
P         -1.54073       -0.02892       -0.41272
C          0.89524       -2.45655       -1.67720
O          1.13970       -3.57712       -1.82453
C         -1.59420       -1.39290        1.95479
C         -1.03900       -2.57523        1.46660
H         -0.58142       -2.58271        0.47831
C         -2.16921       -1.34244        3.23907
C         -2.76192       -0.06257        3.74274
H         -3.14103       -0.17906        4.76713
H         -2.01936        0.75152        3.73761
H         -3.59653        0.26542        3.10227
C         -1.03771       -3.72031        2.25989
H         -0.57536       -4.63186        1.87510
C         -2.15939       -2.50717        4.00832
H         -2.60199       -2.47693        5.00805
C         -1.59763       -3.69246        3.53316
H         -1.59596       -4.58766        4.15879
C         -1.97405        2.46053       -1.57197
H         -1.59774        1.98150       -2.47942
C         -2.52848        2.36201        0.76380
H         -2.57762        1.80810        1.69981
C         -2.35495        3.79194       -1.61388
H         -2.29482        4.37367       -2.53557
C         -2.91377        3.70191        0.73693
H         -3.25226        4.17459        1.65878
C         -2.82529        4.42508       -0.45406
O         -3.15015        5.73233       -0.57196
C         -3.81907        6.35231        0.49270
H         -3.19501        6.40489        1.40168
H         -4.05492        7.37288        0.16516
H         -4.75788        5.82714        0.74078
C         -4.33996       -0.41929       -0.51745
H         -4.42855        0.54329       -0.00762
C         -2.98959       -2.13219       -1.53637
H         -2.00477       -2.51262       -1.82008
C         -5.48334       -1.14271       -0.80784
H         -6.47528       -0.77641       -0.53672
C         -4.13207       -2.87283       -1.83295
H         -4.02883       -3.83020       -2.34372
C         -5.38928       -2.37922       -1.46716
O         -6.55185       -3.01160       -1.70668
C         -6.52603       -4.25526       -2.35091
H         -5.95863       -5.00480       -1.77201
H         -7.56857       -4.58675       -2.43605
H         -6.09018       -4.18398       -3.36293
C          2.32429       -1.98669        1.76218
C          2.93623       -2.74801        0.76926
H          3.13337       -2.31268       -0.20976
C          2.10426       -2.51037        3.04849
C          1.46750       -1.66007        4.10115
H          2.03704       -0.73042        4.25859
H          0.44800       -1.37147        3.80288
H          1.40300       -2.19751        5.05652
C          3.29625       -4.06896        1.03271
H          3.75625       -4.66453        0.24124
C          2.48666       -3.83009        3.28650
H          2.31176       -4.25139        4.28028
C          3.06875       -4.61600        2.29085
H          3.34931       -5.65001        2.50331
C          4.40577        0.94213        0.62416
H          4.04445        1.19806        1.62364
C          3.99201        0.07631       -1.58764
H          3.29255       -0.36050       -2.30809
C          5.73255        1.15319        0.29690
H          6.43979        1.57109        1.01573
C          5.32681        0.28775       -1.93269
H          5.66993        0.02296       -2.93290
C          6.20492        0.82839       -0.98673
O          7.50822        1.07019       -1.21274
C          8.04850        0.75835       -2.46685
H          7.56348        1.33156       -3.27647
H          9.11101        1.02935       -2.42749
H          7.96266       -0.31881       -2.69355
C          0.77401        1.81943        2.13632
H          0.77270        0.95030        2.79423
C          1.23796        2.81154       -0.00628
H          1.60030        2.72786       -1.03476
C          0.28833        3.03820        2.58999
H         -0.09756        3.15060        3.60511
C          0.75630        4.03746        0.43765
H          0.74551        4.88528       -0.24637
C          0.26379        4.15287        1.74269
O         -0.25725        5.28793        2.25160
C         -0.23443        6.44569        1.46133
H         -0.83494        6.33006        0.54251
H         -0.66532        7.25017        2.07138
H          0.79568        6.72766        1.18097
