58
Cat552.ts34.5.log	Energy: -1148839.8970001
C         -3.48816       -1.70011        0.62796
H         -4.46554       -1.49983        0.18041
H         -3.15329       -2.73432        0.49796
C         -3.19558       -1.04723        1.88032
H         -3.89724       -0.30877        2.27761
H         -2.71899       -1.63754        2.67146
H         -1.69943       -0.51546        1.71785
Ir        -2.09515       -0.13128        0.12837
O          0.93878       -1.56625        0.32652
C         -0.74509       -3.27041       -0.96961
C          0.24916       -1.01142       -2.30224
O          0.70042        1.54318       -0.28994
C         -1.40515        3.27870       -0.49918
C         -0.51552        2.37308        2.02574
P         -0.85066        1.75754        0.34161
P         -0.42154       -1.49387       -0.67326
C         -3.21854        0.65497       -1.18056
O         -3.86826        1.14752       -2.00096
C          2.16527       -2.05771       -0.02014
C          3.03946       -1.26422       -0.76951
H          2.70743       -0.27393       -1.08359
C          2.56982       -3.31105        0.47037
C          1.66377       -4.13274        1.33830
H          2.24271       -4.69648        2.08378
H          0.93912       -3.49409        1.86110
H          1.09093       -4.86661        0.74805
C          4.31360       -1.72754       -1.07961
H          4.98983       -1.10086       -1.66569
C          3.85918       -3.75053        0.14647
H          4.19145       -4.72144        0.52522
C          4.72376       -2.98112       -0.62726
H          5.72380       -3.35256       -0.86199
H         -1.54964       -3.34922       -1.71575
H          0.15257       -3.78601       -1.34417
H         -1.08518       -3.75010       -0.04188
H          1.06605       -1.66263       -2.64667
H         -0.59374       -1.06828       -3.00695
H          0.58739        0.03133       -2.24803
C          1.75473        2.40230       -0.14350
C          1.91407        3.44949       -1.05632
H          1.17450        3.56920       -1.84991
C          2.70722        2.16911        0.86392
C          2.57788        1.02183        1.82145
H          2.33716        1.37953        2.83590
H          1.79718        0.31877        1.50494
H          3.52613        0.46810        1.88886
C          3.00872        4.30254       -0.96242
H          3.12644        5.11787       -1.67993
C          3.80050        3.04210        0.93148
H          4.55423        2.87268        1.70580
C          3.95465        4.10129        0.04190
H          4.82049        4.76213        0.12403
H         -1.51382        3.07979       -1.57451
H         -2.39486        3.54317       -0.09953
H         -0.70842        4.11465       -0.34050
H          0.21592        3.19576        2.02793
H         -1.47033        2.72902        2.43942
H         -0.15335        1.54598        2.64887
