92
Cat537.ts34.5.log	Energy: -1803528.2867688
C         -0.65643       -3.31500       -1.66809
H         -0.22650       -4.23096       -1.25376
H         -1.74502       -3.34421       -1.78293
C          0.11817       -2.61755       -2.65979
H          1.13044       -2.95543       -2.90015
H         -0.40970       -2.21901       -3.53383
H          0.06655       -1.08271       -2.23988
Ir         0.14852       -1.59733       -0.63531
O         -2.23012        0.79088       -1.01545
C         -3.35710       -1.62037       -0.52781
C         -2.16372       -0.09981        1.58059
O          2.26934        0.13507        1.29760
C          3.12027        0.11581       -1.31020
C          1.04303        1.82986       -0.37617
P          1.62281        0.10454       -0.26177
P         -1.87652       -0.62259       -0.14824
C          0.85096       -2.63108        0.78575
O          1.25507       -3.24082        1.68180
C         -3.05151        1.79430       -0.59172
C         -2.57976        2.74092        0.32238
H         -1.57182        2.63645        0.72471
C         -4.34473        1.90852       -1.10637
H         -4.70732        1.16099       -1.81251
C         -3.39258        3.79720        0.71759
H         -3.04157        4.54456        1.43114
C         -5.16320        2.96626       -0.71379
H         -6.17654        3.07669       -1.10405
C         -4.67674        3.89738        0.19495
F         -5.45904        4.91052        0.57353
C         -3.92766       -1.55114       -1.80352
H         -3.55601       -0.81600       -2.52125
C         -3.80642       -2.59243        0.37263
H         -3.34214       -2.66537        1.36063
C         -4.95281       -2.42797       -2.15181
H         -5.39985       -2.37364       -3.14767
C         -4.83491       -3.47730        0.03562
C         -5.33340       -4.48721        1.02806
H         -4.55705       -4.74696        1.76167
H         -6.19718       -4.09319        1.58931
H         -5.66164       -5.41206        0.53166
C         -5.40427       -3.37959       -1.24069
H         -6.20608       -4.06649       -1.52541
C         -3.44239        0.20105        2.06763
H         -4.32123        0.05631        1.43573
C         -1.05177        0.09722        2.40434
H         -0.05825       -0.15224        2.02492
C         -3.58632        0.70322        3.35793
H         -4.58180        0.94636        3.73707
C         -1.18088        0.60680        3.69930
C          0.02980        0.79996        4.56560
H          0.08835        0.01964        5.34214
H          0.95315        0.74511        3.97199
H          0.00421        1.77116        5.08296
C         -2.46681        0.91076        4.16178
H         -2.59377        1.31451        5.17063
C          3.59243       -0.03486        1.60440
C          4.50240        1.01195        1.44351
H          4.15953        1.96753        1.04489
C          4.01853       -1.26266        2.11273
H          3.29306       -2.06847        2.23310
C          5.84038        0.83077        1.78127
H          6.57135        1.63190        1.65916
C          5.35507       -1.44569        2.45734
H          5.71281       -2.39624        2.85701
C          6.25110       -0.39837        2.28226
F          7.53350       -0.57478        2.60411
C          3.71858       -1.11530       -1.59340
H          3.24036       -2.03303       -1.23865
C          3.70601        1.29625       -1.78145
H          3.23390        2.25805       -1.56482
C          4.90549       -1.15326       -2.32051
H          5.38283       -2.11263       -2.53378
C          4.88781        1.26993       -2.52607
C          5.51351        2.53764       -3.03114
H          4.91467        3.41759       -2.75803
H          6.52483        2.67416       -2.61596
H          5.61395        2.52432       -4.12793
C          5.48173        0.02708       -2.78206
H          6.41065       -0.01400       -3.35828
C          1.28464        2.76321        0.63613
H          1.80447        2.45515        1.54470
C          0.34389        2.21533       -1.52372
H          0.11848        1.46797       -2.28898
C          0.85213        4.07913        0.47244
H          1.04312        4.81432        1.25807
C         -0.10532        3.52726       -1.69251
C         -0.92992        3.90374       -2.88642
H         -0.82099        4.96847       -3.13804
H         -0.66013        3.30706       -3.76934
H         -1.99739        3.71855       -2.67762
C          0.17318        4.45780       -0.68260
H         -0.17190        5.48913       -0.79580
