84
Cat597.ts34.5.log	Energy: -2345830.2438608
C         -1.75900       -1.87446       -3.46944
H         -1.63591       -2.94261       -3.66570
H         -2.80056       -1.54042       -3.46560
C         -0.74811       -0.98960       -3.98029
H          0.14953       -1.40391       -4.44673
H         -1.06825       -0.04678       -4.43890
H         -0.40915        0.00122       -2.77858
Ir        -0.59024       -1.30622       -1.74032
O         -2.80261        1.18977       -0.71379
O         -3.77968       -1.08104       -0.91450
O         -2.15159       -0.55573        1.03900
O          1.74653       -1.53389        0.58169
O          2.54243       -0.26684       -1.50692
O          1.02825        0.88528        0.15453
P          1.19163       -0.55256       -0.61671
P         -2.32040       -0.41549       -0.59766
C         -0.22476       -3.11548       -1.24708
O          0.00553       -4.19686       -0.93220
C         -1.87071        2.19404       -0.70286
C         -1.37050        2.67906       -1.91144
H         -1.73499        2.25115       -2.84660
C         -1.43391        2.73569        0.50539
H         -1.81794        2.34331        1.44773
C         -0.42391        3.69911       -1.91349
H         -0.02562        4.08891       -2.85179
C         -0.48821        3.75521        0.50922
H         -0.12610        4.17114        1.45015
C          0.01948        4.22324       -0.70002
Cl         1.22311        5.47315       -0.69306
C         -5.01067       -0.79596       -0.36621
C         -5.71150        0.34352       -0.75495
H         -5.26519        1.02202       -1.48202
C         -5.55056       -1.69358        0.55246
H         -4.97576       -2.57885        0.82884
C         -6.95472        0.60158       -0.18068
H         -7.50561        1.49841       -0.47426
C         -6.79228       -1.42412        1.11946
H         -7.20997       -2.11679        1.85348
C         -7.49488       -0.27342        0.76102
H         -8.46727       -0.06227        1.21123
C         -3.02172       -0.36656        2.08523
C         -2.94928       -1.30357        3.11645
H         -2.24028       -2.12854        3.02372
C         -3.91060        0.70715        2.16334
H         -3.97581        1.42478        1.34737
C         -3.78537       -1.17743        4.22261
H         -3.72999       -1.91651        5.02551
C         -4.74763        0.81471        3.27142
H         -5.45770        1.64335        3.31980
C         -4.69207       -0.12103        4.30293
H         -5.35325       -0.02746        5.16697
C          3.05509       -1.82028        0.87751
C          3.66808       -1.22543        1.97874
H          3.10982       -0.51725        2.59150
C          3.74719       -2.73907        0.08910
H          3.24094       -3.20296       -0.75900
C          4.99218       -1.53251        2.27768
H          5.48791       -1.06874        3.13164
C          5.07211       -3.04460        0.38416
H          5.62929       -3.75506       -0.22822
C          5.69140       -2.43257        1.47442
Cl         7.34577       -2.79910        1.83653
C          3.40442        0.80145       -1.39314
C          4.68379        0.60028       -0.87988
H          4.98266       -0.39600       -0.55342
C          2.99818        2.06210       -1.82930
H          1.98636        2.19400       -2.21493
C          5.55716        1.68250       -0.78819
H          6.55888        1.52670       -0.38099
C          3.87859        3.13669       -1.73023
H          3.54965        4.12751       -2.04913
C          5.15814        2.95186       -1.20541
H          5.84457        3.79751       -1.12453
C          1.36619        1.21070        1.44344
C          2.38706        2.13280        1.66535
H          2.92248        2.55673        0.81517
C          0.64704        0.66124        2.50464
H         -0.15591       -0.04568        2.29238
C          2.69820        2.49458        2.97492
H          3.49923        3.21570        3.15353
C          0.97183        1.02906        3.80839
H          0.41079        0.59814        4.64095
C          1.99932        1.94250        4.04904
H          2.25081        2.22844        5.07271
