64
Cat582.ts34.5.log	Energy: -1774772.9235344
C          3.41376       -2.59955       -0.63729
H          4.38959       -2.61442       -0.14405
H          2.86175       -3.53971       -0.53671
C          3.32825       -1.90300       -1.89847
H          4.19038       -1.33515       -2.25889
H          2.77747       -2.38293       -2.71580
H          1.97610       -1.06923       -1.80207
Ir         2.37236       -0.76470       -0.19458
O         -0.93980       -1.07640       -0.42332
C          0.14033       -3.50498        0.41868
C         -0.16674       -1.24661        2.19758
O          0.38303        1.68972        0.73301
C          2.69872        2.76824       -0.14986
C          0.76253        1.70597       -2.04423
P          1.56642        1.35294       -0.42774
P          0.36912       -1.67418        0.49328
C          3.59731       -0.22470        1.14501
O          4.31625        0.12649        1.98112
C         -2.20766       -1.56677       -0.41673
C         -3.13947       -1.15392        0.54126
H         -2.83976       -0.44064        1.31029
C         -2.60225       -2.44949       -1.42660
H         -1.87254       -2.74188       -2.18392
C         -4.44133       -1.64617        0.51024
H         -5.17205       -1.33115        1.25693
C         -3.90132       -2.94463       -1.46168
H         -4.21323       -3.63843       -2.24402
C         -4.81569       -2.54636       -0.48625
Cl        -6.43394       -3.16378       -0.52317
H          1.12234       -3.89466        0.73469
C         -0.97104       -4.17184        1.21751
H         -1.97035       -3.81982        0.92801
H         -0.85351       -3.99851        2.29727
H          0.06727       -3.74643       -0.65541
H         -0.94703       -5.26152        1.06018
H         -1.16129       -1.67761        2.39326
C          0.84064       -1.68448        3.25000
H          1.82946       -1.24680        3.05023
H          0.96107       -2.77900        3.28000
H         -0.26375       -0.14988        2.18470
H          0.51899       -1.36051        4.25122
C         -0.62392        2.59665        0.62094
C         -1.82753        2.22029        0.01896
H         -1.92006        1.20746       -0.37390
C         -0.48202        3.88044        1.15249
H          0.45319        4.15327        1.64471
C         -2.87511        3.12994       -0.07774
H         -3.81650        2.84498       -0.55035
C         -1.52821        4.79413        1.05818
H         -1.42766        5.80056        1.46769
C         -2.71849        4.41719        0.43675
Cl        -4.01997        5.55484        0.31460
H          3.02367        2.67305        0.89897
C          3.89663        2.76072       -1.08665
H          3.59653        2.88669       -2.13875
H          4.44186        1.80795       -1.00714
H          2.12353        3.70519       -0.23014
H          4.59061        3.57782       -0.83910
H         -0.13516        1.06600       -2.05516
C          0.45871        3.14292       -2.44139
H          1.37351        3.75159       -2.49748
H         -0.23261        3.63770       -1.74623
H          1.45396        1.24122       -2.76599
H         -0.00694        3.16502       -3.43871
