102
Cat577.ts34.5.log	Energy: -1916999.9837250
C         -0.90905       -3.10472       -1.54032
H         -0.58674       -4.08192       -1.16998
H         -1.98867       -3.02049       -1.70456
C         -0.02870       -2.43238       -2.45959
H          0.95679       -2.85444       -2.67515
H         -0.47819       -1.94018       -3.33098
H          0.05726       -0.96557       -1.95426
Ir         0.03342       -1.55197       -0.37692
O         -1.82448        1.11928       -0.99333
C         -3.43476       -1.05126       -0.58699
C         -2.25811        0.26815        1.66653
O          1.82720        0.54442        1.56408
C          3.33685       -1.36935        0.40231
C          2.37655        1.02790       -1.05980
P          1.88830       -0.30368        0.09714
P         -1.87269       -0.27332       -0.04441
C          0.35345       -2.69394        1.09779
O          0.48495       -3.39218        2.00951
C         -2.52370        2.28207       -1.10546
C         -2.88729        3.06200       -0.00783
H         -2.62778        2.72828        0.99508
C         -2.76046        2.73312       -2.41880
C         -2.25639        1.94921       -3.59354
H         -1.15740        1.87842       -3.57918
H         -2.62194        0.91119       -3.59227
H         -2.55835        2.42134       -4.53840
C         -3.55217        4.27001       -0.20269
H         -3.83415        4.87232        0.66458
C         -3.43149        3.94796       -2.58290
H         -3.62776        4.30318       -3.59853
C         -3.83997        4.71227       -1.49149
H         -4.36256        5.65822       -1.64945
C         -4.18236       -0.62055       -1.67921
H         -3.90561        0.30521       -2.18216
C         -3.82026       -2.23406        0.07574
O         -3.06099       -2.57299        1.13254
C         -3.18750       -3.83885        1.71596
H         -4.15322       -3.95311        2.23910
H         -2.36959       -3.92691        2.44173
H         -3.08709       -4.64035        0.96388
C         -5.29279       -1.34193       -2.12130
H         -5.86898       -0.98453       -2.97738
C         -4.92330       -2.96689       -0.36775
H         -5.21765       -3.88485        0.14224
C         -5.65680       -2.51375       -1.46559
H         -6.52116       -3.08933       -1.80558
C         -1.23461        0.18815        2.61100
H         -0.24945       -0.14578        2.27932
C         -3.53490        0.70809        2.08476
O         -4.48486        0.79172        1.14125
C         -5.75779        1.27480        1.45696
H         -6.25811        0.64670        2.21421
H         -6.33701        1.24114        0.52579
H         -5.71873        2.31726        1.81875
C         -1.44282        0.54479        3.94262
H         -0.62096        0.48283        4.65831
C         -3.74942        1.05944        3.42148
H         -4.73093        1.40117        3.75069
C         -2.70310        0.97653        4.34071
H         -2.88649        1.25650        5.38129
C          2.50262        1.71644        1.79858
C          3.83334        1.68745        2.21742
H          4.33136        0.72369        2.32281
C          1.81790        2.93411        1.64423
C          0.36966        2.97058        1.26850
H          0.10716        3.92279        0.78793
H          0.09772        2.15516        0.58799
H         -0.26325        2.85446        2.16382
C          4.51243        2.87618        2.47051
H          5.55317        2.84559        2.80282
C          2.52885        4.11319        1.89292
H          2.01366        5.06898        1.76344
C          3.86104        4.09601        2.29835
H          4.38714        5.03495        2.48614
C          3.69087       -1.74068        1.69666
H          3.14615       -1.30513        2.53687
C          4.00387       -1.96140       -0.68664
O          3.56827       -1.58590       -1.90603
C          4.21547       -2.06293       -3.04875
H          5.28175       -1.77562       -3.06271
H          3.71118       -1.60301       -3.90804
H          4.14135       -3.16141       -3.13467
C          4.71833       -2.65942        1.92331
H          4.98342       -2.94074        2.94449
C          5.03913       -2.86940       -0.46680
H          5.57031       -3.32044       -1.30557
C          5.39281       -3.21249        0.84139
H          6.20075       -3.92981        1.00465
C          1.34140        1.65234       -1.75938
H          0.32607        1.26370       -1.64427
C          3.68867        1.53194       -1.20009
O          4.66500        0.89927       -0.53279
C          5.96495        1.41323       -0.53397
H          6.40091        1.42408       -1.54837
H          6.55967        0.74330        0.10014
H          5.99561        2.43264       -0.11251
C          1.57264        2.76500       -2.56615
H          0.74109        3.24843       -3.08275
C          3.92309        2.64480       -2.01506
H          4.93168        3.04371       -2.12166
C          2.86728        3.25722       -2.68719
H          3.06876        4.13211       -3.31052
