86
Cat500.ts34.5.log	Energy: -1534803.9989138
C         -0.73448       -2.18164       -2.88097
H         -1.36874       -1.86224       -3.71256
H          0.32191       -2.30161       -3.13987
C         -1.30329       -3.10424       -1.93528
H         -2.36180       -3.36764       -2.00290
H         -0.67736       -3.93062       -1.58128
H         -0.84534       -2.51642       -0.49568
Ir        -1.15460       -0.99470       -1.12091
O          1.41513       -0.14210        0.76834
O          2.11486       -1.67767       -1.15313
O          1.77012        0.72600       -1.61739
O         -1.43649        0.82263        1.73698
O         -3.64234       -0.09766        0.85527
O         -2.03149       -1.52400        2.08154
P         -2.06920       -0.45418        0.86543
P          1.04040       -0.50354       -0.81734
C         -2.28265        0.21101       -2.06987
O         -2.94809        0.95486       -2.64898
C          2.67982       -0.01532        1.27124
C          3.19355       -1.03666        2.06990
H          2.58779       -1.92892        2.23716
C          3.44084        1.13078        1.03674
H          3.02903        1.91998        0.40904
C          4.46279       -0.90987        2.62783
H          4.85581       -1.71863        3.25040
C          4.71095        1.23931        1.59608
H          5.30196        2.13877        1.40121
C          5.24708        0.22722        2.40182
C          6.60356        0.37250        3.02877
H          7.06833       -0.60633        3.21616
H          6.53912        0.89477        3.99823
H          7.28285        0.95581        2.39000
C          3.44505       -1.51266       -1.67853
H          3.81940       -0.51976       -1.38468
C          3.39048       -1.60113       -3.19000
H          2.74246       -0.81334       -3.59730
H          2.99506       -2.58035       -3.50228
H          4.39583       -1.48060       -3.62124
C          4.30658       -2.58595       -1.05035
H          4.32784       -2.47250        0.04203
H          3.91289       -3.58456       -1.29464
H          5.33799       -2.51608       -1.42704
C          1.02291        1.80902       -2.19487
H          0.09158        1.93546       -1.61669
C          0.67973        1.47357       -3.63175
H          0.11819        0.53018       -3.67857
H          1.59516        1.37352       -4.23602
H          0.05528        2.26518       -4.07204
C          1.87102        3.05562       -2.07025
H          2.06435        3.29369       -1.01584
H          2.83236        2.91987       -2.58971
H          1.34916        3.91383       -2.51812
C         -1.09015        2.02603        1.20115
C          0.07330        2.63728        1.67393
H          0.67884        2.11306        2.41447
C         -1.86556        2.66892        0.23630
H         -2.77716        2.19904       -0.13479
C          0.44216        3.88719        1.19284
H          1.35372        4.35524        1.57649
C         -1.47006        3.91571       -0.24847
H         -2.08303        4.40221       -1.01212
C         -0.31850        4.55258        0.22030
C          0.09348        5.90420       -0.28648
H         -0.03233        6.67812        0.48841
H         -0.50573        6.20656       -1.15699
H          1.15353        5.91626       -0.58501
C         -4.37421        0.19877        2.06312
H         -3.64821        0.37787        2.87321
C         -5.22898       -1.00289        2.40612
H         -4.59290       -1.88437        2.56324
H         -5.93277       -1.21684        1.58730
H         -5.80670       -0.81577        3.32399
C         -5.17122        1.46043        1.81298
H         -4.50561        2.30888        1.60001
H         -5.84644        1.32165        0.95483
H         -5.77680        1.71155        2.69658
C         -0.81367       -2.16999        2.48460
H         -0.07108       -2.03615        1.67927
C         -1.11978       -3.64332        2.63884
H         -1.48516       -4.05996        1.68897
H         -1.89527       -3.79770        3.40506
H         -0.21759       -4.19630        2.94029
C         -0.30128       -1.51130        3.74826
H         -0.10456       -0.44651        3.56617
H         -1.04367       -1.59980        4.55648
H          0.63319       -1.98836        4.08002
