82
Cat575.ts34.5.log	Energy: -1346034.0984183
C         -0.97463       -3.62844       -0.63749
H         -0.54024       -4.50940       -0.15686
H         -2.06164       -3.56441       -0.52440
C         -0.40649       -3.22657       -1.90272
H          0.48414       -3.73721       -2.27934
H         -1.09367       -2.94665       -2.71012
H         -0.27166       -1.64463       -1.79682
Ir         0.19438       -1.87250       -0.19599
O         -1.60847        0.90962       -0.44357
C         -3.23772       -1.18375        0.49629
C         -1.36355        0.23130        2.17448
O          1.58976        0.92372        0.81416
C          3.49787       -0.65529       -0.38729
C          1.54802        0.80303       -1.96098
P          1.72341       -0.19785       -0.43362
P         -1.52386       -0.50298        0.50038
C          1.26198       -2.72317        1.11651
O          1.92531       -3.20282        1.93559
C         -2.70888        1.67897       -0.67110
C         -3.08086        2.68048        0.22764
H         -2.48423        2.83046        1.12871
C         -3.41566        1.48280       -1.87049
C         -2.94125        0.46289       -2.86127
H         -1.87123        0.59988       -3.08002
H         -3.04260       -0.56477       -2.47811
H         -3.50760        0.53115       -3.79991
C         -4.20161        3.46626       -0.03046
H         -4.49496        4.24301        0.67961
C         -4.53679        2.28391       -2.10471
H         -5.10106        2.14103       -3.03054
C         -4.93986        3.25990       -1.19391
H         -5.82165        3.86967       -1.40251
H         -3.49513       -1.36325       -0.56107
H         -3.09318       -2.19027        0.92737
C         -4.37817       -0.47314        1.21697
H         -4.52559        0.53408        0.80102
H         -4.11279       -0.33156        2.27772
C         -5.67931       -1.25613        1.12252
H         -5.99375       -1.37740        0.07350
H         -5.57538       -2.26440        1.55509
H         -6.49476       -0.74485        1.65629
H         -0.43660        0.82461        2.12488
H         -2.20275        0.92191        2.35933
C         -1.25918       -0.81286        3.27836
H         -0.46841       -1.53207        3.00945
H         -2.19430       -1.39769        3.33520
C         -0.96002       -0.19488        4.63529
H         -0.00875        0.36005        4.61225
H         -1.74829        0.51212        4.94074
H         -0.87943       -0.96464        5.41777
C          2.36909        2.01310        1.08814
C          3.58470        1.84106        1.75595
H          3.89798        0.83110        2.02364
C          1.89027        3.29905        0.78269
C          0.57058        3.50029        0.10091
H          0.70721        3.74768       -0.96528
H         -0.05096        2.59826        0.14874
H          0.01888        4.33766        0.55293
C          4.36564        2.94351        2.08762
H          5.31622        2.79872        2.60615
C          2.69365        4.39012        1.13472
H          2.33452        5.39720        0.90384
C          3.92194        4.22591        1.76902
H          4.52481        5.09902        2.02832
H          4.12353        0.25166       -0.42046
H          3.65964       -1.13168        0.59429
C          3.87248       -1.62506       -1.50245
H          3.72489       -1.14037       -2.48331
H          3.17124       -2.47625       -1.47521
C          5.30602       -2.11896       -1.38799
H          6.02500       -1.28505       -1.43015
H          5.46643       -2.64729       -0.43489
H          5.55524       -2.81651       -2.20195
H          1.41789        0.05397       -2.76098
H          0.56425        1.28924       -1.85272
C          2.64210        1.79693       -2.33014
H          3.58881        1.25767       -2.50027
H          2.83541        2.48386       -1.49198
C          2.28769        2.59685       -3.57495
H          2.11919        1.93647       -4.44087
H          1.36490        3.17974       -3.42355
H          3.08883        3.30241       -3.84232
