98
Cat564.ts34.5.log	Energy: -1728342.2398607
C         -0.91622       -3.12450       -1.78543
H         -0.54041       -4.11563       -1.51670
H         -2.00661       -3.06449       -1.86429
C         -0.12692       -2.35505       -2.70979
H          0.84783       -2.73228       -3.03218
H         -0.65314       -1.81212       -3.50452
H         -0.04482       -0.93180       -2.09638
Ir         0.05868       -1.63090       -0.56725
O         -1.78972        1.12405       -0.66344
C         -3.45335       -1.06242       -0.49077
C         -2.11630       -0.15862        1.80595
O          1.92684        0.42083        1.36280
C          3.44367       -1.31314       -0.06996
C          2.29387        1.03654       -1.27480
P          1.90045       -0.34389       -0.15165
P         -1.81863       -0.42072        0.01706
C          0.57653       -2.85887        0.78029
O          0.87074       -3.59696        1.61725
C         -2.56504        2.23885       -0.52824
C         -2.89677        2.78915        0.71006
H         -2.56121        2.30344        1.62401
C         -2.94200        2.87680       -1.72661
C         -2.52764        2.30474       -3.04856
H         -1.43341        2.32857       -3.16686
H         -2.81976        1.24777       -3.14648
H         -2.97443        2.86868       -3.87867
C         -3.64565        3.96314        0.76785
H         -3.90438        4.38439        1.74219
C         -3.69043        4.05242       -1.63570
H         -3.99360        4.55251       -2.55990
C         -4.05129        4.59582       -0.40345
H         -4.63893        5.51544       -0.36139
C         -4.39177       -0.35718       -1.24660
H         -4.20097        0.67401       -1.54215
C         -3.75703       -2.37754       -0.10501
H         -3.02826       -2.94699        0.47986
C         -5.60230       -0.95186       -1.60436
H         -6.32480       -0.37737       -2.19084
C         -4.96745       -2.95881       -0.45801
H         -5.18370       -3.98270       -0.13988
C         -5.91367       -2.25828       -1.22077
C         -7.20582       -2.90590       -1.62307
H         -7.04084       -3.66054       -2.40989
H         -7.67672       -3.42401       -0.77372
H         -7.92180       -2.16958       -2.01437
C         -3.40207       -0.06259        2.35500
H         -4.27957       -0.15471        1.71145
C         -1.01036       -0.03905        2.65546
H         -0.00188       -0.12105        2.24367
C         -3.57128        0.16706        3.71650
H         -4.58245        0.24302        4.12624
C         -1.18922        0.20281        4.01391
H         -0.31104        0.30541        4.65766
C         -2.46991        0.30817        4.57033
C         -2.65594        0.52659        6.04251
H         -2.65677       -0.43553        6.58190
H         -1.84347        1.13521        6.46537
H         -3.61173        1.02452        6.26032
C          2.66172        1.55274        1.62074
C          4.01921        1.45761        1.92880
H          4.49013        0.47464        1.95409
C          2.00982        2.79714        1.58391
C          0.53973        2.89344        1.31976
H          0.20609        2.17746        0.55858
H         -0.03339        2.66723        2.23374
H          0.25997        3.90292        0.98960
C          4.75959        2.61016        2.18042
H          5.82313        2.52938        2.41723
C          2.78004        3.93725        1.83387
H          2.29088        4.91456        1.79678
C          4.14036        3.85621        2.12399
H          4.71396        4.76688        2.31133
C          3.84621       -1.88579        1.14151
H          3.29322       -1.65937        2.05596
C          4.15128       -1.63583       -1.23392
H          3.84333       -1.21338       -2.19405
C          4.94152       -2.74306        1.18685
H          5.24146       -3.17764        2.14454
C          5.24750       -2.49000       -1.17836
H          5.79486       -2.71996       -2.09697
C          5.66336       -3.06140        0.03098
C          6.82306       -4.01226        0.07803
H          7.58035       -3.76403       -0.67998
H          7.30909       -4.00823        1.06430
H          6.49087       -5.04556       -0.11868
C          3.59007        1.56077       -1.39184
H          4.42306        1.08216       -0.87442
C          1.24549        1.68120       -1.93823
H          0.22763        1.29709       -1.82969
C          3.82294        2.69722       -2.15524
H          4.83917        3.09446       -2.22738
C          1.48807        2.82264       -2.69778
H          0.65462        3.32304       -3.19874
C          2.77662        3.35121       -2.81998
C          3.04254        4.57721       -3.64186
H          3.61459        4.32656       -4.55019
H          2.10874        5.06278       -3.95756
H          3.63805        5.31200       -3.07852
