112
Cat596.ts34.5.log	Energy: -2731595.8417634
C          0.44472       -3.70009        0.30682
H         -0.14354       -4.41409       -0.27743
H          1.52336       -3.89024        0.28254
C         -0.13461       -3.23703        1.54608
H         -1.14949       -3.54052        1.82575
H          0.53044       -3.17672        2.41763
H          0.06986       -1.69646        1.56013
Ir        -0.23625       -1.70464       -0.09388
O          2.03154        0.58555        0.91212
C          3.13233       -1.85406        0.09664
C          2.43066        0.27286       -1.74210
O         -2.75165        0.13763       -1.12503
C         -3.14827       -0.51348        1.47589
C         -1.23396        1.61218        0.69000
P         -1.83603       -0.06896        0.25409
P          1.80456       -0.62336       -0.25179
C         -1.02248       -2.15639       -1.74796
O         -1.50379       -2.42714       -2.76613
C          2.96361        1.57080        0.89797
C          4.08756        1.48073        1.72212
H          4.21354        0.58423        2.32852
C          2.77433        2.70330        0.10302
H          1.87492        2.77529       -0.50854
C          5.03027        2.50375        1.73610
H          5.91583        2.44011        2.37095
C          3.71856        3.72490        0.10479
H          3.58279        4.60808       -0.52139
C          4.84685        3.61649        0.91595
Cl         6.04116        4.87912        0.90330
C          3.54136       -2.68859       -0.96434
O          3.00143       -2.39805       -2.16174
C          3.29010       -3.18531       -3.27891
H          2.71474       -2.76046       -4.11100
H          4.36405       -3.15563       -3.53398
H          2.98403       -4.23510       -3.12836
C          3.55783       -2.20088        1.38987
O          3.05812       -1.48059        2.42581
C          3.36041       -1.87421        3.73244
H          2.81776       -1.19117        4.39839
H          4.43976       -1.79564        3.95303
H          3.03224       -2.90874        3.93632
C          4.44735       -3.26625        1.59730
H          4.79328       -3.51351        2.59966
C          4.42448       -3.75384       -0.76817
H          4.74316       -4.37458       -1.60463
C          4.88369       -4.02171        0.51678
H          5.57636       -4.84989        0.68273
C          3.80907        0.50347       -1.95318
O          4.63818        0.10381       -0.97739
C          6.00397        0.39528       -1.04123
H          6.44222        0.00702       -0.11333
H          6.48922       -0.09995       -1.90006
H          6.18429        1.48248       -1.09373
C          1.53246        0.74199       -2.72466
O          0.22413        0.62656       -2.47139
C         -0.70937        0.83393       -3.49835
H         -1.68554        0.60512       -3.05997
H         -0.51512        0.16336       -4.35212
H         -0.70451        1.88059       -3.84822
C          2.00371        1.33861       -3.90588
H          1.30405        1.67834       -4.66740
C          4.27885        1.12118       -3.11678
H          5.34379        1.29397       -3.26394
C          3.36689        1.51908       -4.08681
H          3.72903        1.99524       -5.00146
C         -4.03861        0.54705       -1.20381
C         -4.60432        1.49447       -0.34634
H         -4.01314        1.93327        0.45899
C         -4.80618       -0.01549       -2.22688
H         -4.34129       -0.76837       -2.86633
C         -5.93237        1.87505       -0.51847
H         -6.38541        2.61116        0.14768
C         -6.12955        0.37182       -2.40568
H         -6.73519       -0.06246       -3.20284
C         -6.68883        1.31764       -1.54727
Cl        -8.34364        1.80224       -1.76007
C         -3.52420        0.21156        2.62461
O         -3.15176        1.50153        2.68429
C         -3.22752        2.20397        3.89056
H         -2.71677        3.16088        3.72057
H         -4.27196        2.40005        4.19014
H         -2.71636        1.66356        4.70577
C         -3.73783       -1.78502        1.28914
O         -3.51985       -2.34847        0.09585
C         -3.78904       -3.70421       -0.11921
H         -3.38529       -3.94021       -1.11161
H         -4.87345       -3.91006       -0.11048
H         -3.29274       -4.34073        0.63316
C         -4.51272       -2.38642        2.28688
H         -4.93675       -3.37899        2.13884
C         -4.29816       -0.38327        3.62940
H         -4.56437        0.17543        4.52588
C         -4.76521       -1.68131        3.45752
H         -5.37277       -2.14039        4.24116
C         -0.50331        1.69449        1.88979
O         -0.51273        0.57383        2.63193
C          0.41115        0.41805        3.67259
H          0.27964       -0.60593        4.04580
H          1.43926        0.53982        3.29955
H          0.21615        1.12356        4.49958
C         -1.30405        2.76041       -0.12029
O         -1.99319        2.67264       -1.27282
C         -2.19581        3.81197       -2.05483
H         -2.83296        3.50072       -2.89258
H         -1.24712        4.21296       -2.45380
H         -2.71285        4.60920       -1.49297
C         -0.67866        3.95165        0.28148
H         -0.73896        4.84285       -0.34131
C          0.13459        2.87053        2.28766
H          0.71457        2.90836        3.20863
C          0.03150        3.99312        1.47496
H          0.53156        4.91845        1.76982
