110
Cat501.ts34.5.log	Energy: -1638832.3871398
C          1.16919       -1.59333       -3.00958
H          1.02749       -1.10979       -3.98002
H          2.19381       -1.93860       -2.83924
C          0.09155       -2.41510       -2.52600
H         -0.84101       -2.46231       -3.09527
H          0.34267       -3.37206       -2.05228
H         -0.12424       -2.00224       -1.02478
Ir         0.20790       -0.41076       -1.46939
O          2.28526       -2.01960        0.76021
C          3.68240       -0.57386       -0.87869
C          2.14817        0.65686        1.39901
O         -1.49116        0.95165        1.22240
C         -2.85237        1.28675       -1.12634
C         -2.56830       -1.30583        0.42928
P         -1.66114        0.15141       -0.26508
P          2.03782       -0.53165       -0.02595
C          0.10554        1.15498       -2.51199
O          0.03184        2.13963       -3.12030
C          1.28990       -2.77256        1.28753
C          1.16414       -4.09751        0.85918
H          1.84465       -4.46032        0.08602
C          0.42569       -2.29367        2.27532
H          0.49029       -1.25595        2.60392
C          0.20371       -4.92985        1.42416
H          0.12433       -5.96429        1.07755
C         -0.51838       -3.14526        2.84517
H         -1.16834       -2.75640        3.63368
C         -0.65494       -4.47450        2.43370
C         -1.69941       -5.37473        3.02768
H         -2.05283       -4.99585        3.99719
H         -1.31469       -6.39410        3.18080
H         -2.57951       -5.45585        2.36724
H          3.57913       -1.53702       -1.41392
C          4.92794       -0.69687       -0.00185
H          4.78710       -1.49071        0.74652
H          5.08831        0.24564        0.54858
C          6.15871       -0.97797       -0.86038
H          7.05602       -1.04176       -0.22330
H          6.04620       -1.96821       -1.33814
C          6.34389        0.08405       -1.93867
H          7.21490       -0.15559       -2.57015
H          6.56858        1.05261       -1.45549
C          5.08991        0.23384       -2.79376
H          4.92771       -0.69623       -3.36858
H          5.22332        1.03697       -3.53651
C          3.85471        0.51114       -1.94247
H          3.96130        1.49624       -1.45866
H          2.95153        0.56771       -2.56801
H          1.08876        0.75590        1.69953
C          2.61207        2.04415        0.94728
H          2.02739        2.37882        0.07602
H          3.66532        1.98768        0.62328
C          2.49837        3.05119        2.08757
H          2.85978        4.03737        1.75310
H          1.43535        3.18230        2.34444
C          3.25774        2.59070        3.32557
H          3.12245        3.31347        4.14667
H          4.34141        2.56567        3.10786
C          2.80561        1.20081        3.75836
H          1.74789        1.24601        4.07626
H          3.38153        0.86039        4.63443
C          2.94498        0.19314        2.62112
H          4.00895        0.09387        2.35835
H          2.61995       -0.80537        2.94600
C         -1.17922        2.25463        1.42783
C         -1.43216        2.76107        2.70811
H         -1.85184        2.08946        3.45970
C         -0.63649        3.10341        0.45894
H         -0.38457        2.72480       -0.53035
C         -1.16727        4.09385        3.00116
H         -1.37773        4.46823        4.00706
C         -0.38892        4.43977        0.76799
H          0.03199        5.08533       -0.00785
C         -0.64586        4.96590        2.03656
C         -0.32856        6.39480        2.36878
H         -0.37376        7.03579        1.47645
H          0.68803        6.48817        2.78733
H         -1.02644        6.80129        3.11562
H         -2.20504        2.15934       -1.32537
C         -4.04570        1.80307       -0.32353
H         -3.73570        2.14012        0.67687
H         -4.77174        0.98604       -0.17619
C         -4.72521        2.94091       -1.08166
H         -5.59645        3.30597       -0.51369
H         -4.02188        3.79009       -1.15197
C         -5.14691        2.50913       -2.48260
H         -5.58785        3.35850       -3.02935
H         -5.94460        1.74834       -2.39804
C         -3.98019        1.91813       -3.26835
H         -3.23227        2.70503       -3.47256
H         -4.32436        1.55486       -4.25033
C         -3.30203        0.78695       -2.50172
H         -4.01248       -0.04786       -2.38246
H         -2.43993        0.39241       -3.06108
H         -1.73121       -1.88739        0.85385
C         -3.20607       -2.16520       -0.66409
H         -2.49660       -2.33404       -1.48718
H         -4.07017       -1.63096       -1.09442
C         -3.68746       -3.49119       -0.08530
H         -4.14613       -4.10481       -0.87768
H         -2.81378       -4.05597        0.28660
C         -4.67635       -3.26475        1.05286
H         -4.99117       -4.22679        1.49001
H         -5.59111       -2.79659        0.64542
C         -4.08606       -2.36209        2.13047
H         -3.25503       -2.89254        2.62340
H         -4.83463       -2.15879        2.91369
C         -3.56464       -1.04471        1.55982
H         -4.41522       -0.45523        1.18280
H         -3.08997       -0.44338        2.34769
