84
Cat541.ts34.5.log	Energy: -2142647.7752588
C          1.28748       -4.10441       -0.67322
H          1.24784       -4.61761       -1.63739
H          2.28962       -4.05888       -0.23706
C          0.15641       -4.25413        0.20111
H         -0.73731       -4.77380       -0.15387
H          0.34203       -4.41059        1.26999
H         -0.14836       -2.78208        0.73789
Ir         0.23170       -2.22009       -0.79795
O          2.35056       -0.71253        1.50743
O          3.44768       -1.45312       -0.58374
O          1.87782        0.61312       -0.62405
O         -1.98421       -0.03868       -1.96442
O         -2.87551       -1.41152        0.00794
O         -1.22800        0.46476        0.43066
P         -1.47564       -0.79309       -0.59626
P          1.96330       -0.95544       -0.10586
C          0.06533       -2.30871       -2.70203
O         -0.03655       -2.34159       -3.84579
C          1.38641       -0.53881        2.46481
C          1.04619       -1.61432        3.28558
H          1.53714       -2.57634        3.12795
C          0.77376        0.70232        2.64147
H          1.02545        1.53054        1.97775
C          0.10243       -1.44897        4.29670
H         -0.17808       -2.27165        4.95676
C         -0.17113        0.87353        3.64840
H         -0.67168        1.83159        3.79773
C         -0.49086       -0.20381        4.46437
F         -1.40683       -0.04624        5.42540
C          4.68356       -0.91187       -0.30263
C          5.25136       -1.03830        0.96355
H          4.69993       -1.55317        1.74937
C          5.37426       -0.27187       -1.33044
H          4.91162       -0.19922       -2.31549
C          6.50244       -0.47983        1.21409
H          6.97004       -0.55382        2.19751
C          6.62305        0.28703       -1.08335
H          7.17818        0.80841       -1.86480
C          7.16880        0.18348        0.19138
F          8.36084        0.72608        0.43512
C          2.84411        1.59020       -0.65081
C          3.04429        2.24178       -1.86749
H          2.45347        1.93424       -2.73244
C          3.57948        1.95929        0.47726
H          3.42640        1.44054        1.42244
C          3.99955        3.24881       -1.97092
H          4.17934        3.76931       -2.91323
C          4.54315        2.95749        0.37258
H          5.14698        3.25033        1.23303
C          4.74500        3.58898       -0.84883
F          5.66995        4.54227       -0.94527
C         -3.28797        0.21998       -2.31922
C         -3.78933        1.51724       -2.22810
H         -3.15037        2.31802       -1.85572
C         -4.08351       -0.81726       -2.80565
H         -3.66572       -1.82264       -2.87656
C         -5.10350        1.77642       -2.60898
H         -5.52263        2.78204       -2.54641
C         -5.39882       -0.56218       -3.18271
H         -6.04548       -1.35479       -3.56287
C         -5.89423        0.73320       -3.07605
F         -7.15264        0.97954       -3.43512
C         -3.64980       -0.86288        1.00331
C         -4.89303       -0.31621        0.69214
H         -5.23546       -0.30970       -0.34310
C         -3.19186       -0.88491        2.32036
H         -2.21244       -1.31200        2.53973
C         -5.67936        0.22473        1.70699
H         -6.65676        0.66081        1.49372
C         -3.96894       -0.33512        3.33590
H         -3.61762       -0.32073        4.36864
C         -5.20581        0.21412        3.01409
F         -5.95472        0.74198        3.98109
C         -1.50896        1.79487        0.26125
C         -2.51467        2.38618        1.02509
H         -3.09275        1.77517        1.71853
C         -0.74832        2.55516       -0.62757
H          0.04210        2.06787       -1.19809
C         -2.77490        3.74708        0.88488
H         -3.55836        4.23620        1.46623
C         -1.01011        3.91487       -0.77165
H         -0.43118        4.53349       -1.45953
C         -2.02342        4.49413       -0.01540
F         -2.27517        5.79478       -0.15156
