90
Cat572.ts34.5.log	Energy: -2971783.9881096
C         -0.73397       -3.63857       -0.12182
H         -0.99189       -4.27601       -0.97115
H          0.14126       -3.97783        0.43934
C         -1.81387       -3.03123        0.60424
H         -2.83982       -3.12729        0.23619
H         -1.74399       -3.00081        1.69847
H         -1.37832       -1.52483        0.80315
Ir        -0.73012       -1.56085       -0.74688
O          1.88593       -1.56899        1.48493
O          2.54555       -1.85894       -0.87793
O          1.80641        0.48532       -0.04801
O         -1.39616        1.17402       -2.48751
O         -3.28369        0.62470       -0.87163
O         -1.20371        1.67249       -0.02911
P         -1.64316        0.45450       -1.04158
P          1.35800       -1.10669       -0.03591
C         -0.77568       -2.00325       -2.60561
O         -0.79848       -2.26360       -3.72458
C          1.06820       -1.56055        2.58108
C          0.26029       -0.46308        2.88368
H          0.25881        0.40757        2.22401
C          1.09462       -2.70135        3.39954
C          1.98311       -3.85457        3.04893
H          1.82653       -4.18132        2.00967
H          3.04587       -3.57414        3.12691
H          1.80506       -4.70847        3.71602
C         -0.53821       -0.49234        4.02698
H         -1.15792        0.37310        4.27228
C          0.27965       -2.70271        4.53437
H          0.28543       -3.58298        5.18279
C         -0.53267       -1.61392        4.85173
H         -1.15551       -1.64134        5.74836
C          3.89542       -1.61164       -0.91538
C          4.68660       -1.61209        0.23364
H          4.23034       -1.82231        1.20029
C          4.46219       -1.36628       -2.16476
H          3.82208       -1.39584       -3.04830
C          6.03596       -1.28983        0.13680
H          6.66014       -1.24474        1.03033
C          5.81530       -1.06002       -2.26508
H          6.26919       -0.84934       -3.23467
C          6.59174       -1.00104       -1.10890
Cl         8.26014       -0.54892       -1.21798
C          2.99952        1.03717        0.35973
C          3.86631        1.53430       -0.61272
H          3.58168        1.46423       -1.66309
C          3.32786        1.12871        1.71098
H          2.63395        0.76716        2.46970
C          5.09694        2.06209       -0.24260
H          5.80061        2.41821       -0.99617
C          4.55855        1.66145        2.08521
H          4.83713        1.72405        3.13823
C          5.44477        2.10820        1.10750
Cl         6.99770        2.71891        1.57042
C         -1.62752        2.52034       -2.69870
C         -2.92178        2.97857       -2.92236
H         -3.74633        2.26510       -2.91446
C         -0.52064        3.38078       -2.68677
C          0.85033        2.84043       -2.42775
H          0.91025        2.38545       -1.42742
H          1.10125        2.04519       -3.14708
H          1.60739        3.63285       -2.49857
C         -3.13764        4.33885       -3.13402
H         -4.15163        4.70643       -3.30569
C         -0.76728        4.73963       -2.90700
H          0.07760        5.43346       -2.90300
C         -2.05886        5.22043       -3.12390
H         -2.22047        6.28792       -3.28971
C         -4.14077       -0.43649       -0.75938
C         -4.87417       -0.57661        0.41659
H         -4.75144        0.16474        1.20776
C         -4.28341       -1.35767       -1.79702
H         -3.71263       -1.23065       -2.71799
C         -5.74911       -1.64892        0.56518
H         -6.33094       -1.77097        1.47998
C         -5.15086       -2.43579       -1.64861
H         -5.26794       -3.16764       -2.44917
C         -5.87526       -2.58015       -0.46527
Cl        -6.94813       -3.92696       -0.27643
C         -2.00629        2.37902        0.82710
C         -2.53285        1.76282        1.96120
H         -2.33183        0.70474        2.13829
C         -2.24515        3.72789        0.57686
H         -1.83072        4.18796       -0.32199
C         -3.30636        2.49838        2.85406
H         -3.72624        2.03013        3.74603
C         -3.01383        4.46700        1.47129
H         -3.21012        5.52463        1.28932
C         -3.54296        3.85001        2.60439
Cl        -4.50420        4.76956        3.71423
