84
Cat543.ts34.5.log	Energy: -3046961.2687042
C          1.05192       -4.37086       -0.69923
H          1.03714       -4.87826       -1.66715
H          2.03320       -4.36783       -0.21591
C         -0.12418       -4.47780        0.11998
H         -1.02051       -4.95927       -0.27952
H          0.00446       -4.64540        1.19555
H         -0.39535       -2.99827        0.64841
Ir         0.07946       -2.44456       -0.86398
O          2.13357       -1.03161        1.55544
O          3.30947       -1.79220       -0.48591
O          1.81057        0.32857       -0.58122
O         -1.99686       -0.17814       -2.12297
O         -3.03602       -1.53182       -0.21056
O         -1.35090        0.27962        0.31400
P         -1.58479       -0.96050       -0.73948
P          1.81832       -1.24943       -0.07560
C          0.01142       -2.51527       -2.77533
O         -0.02982       -2.53728       -3.92288
C          1.12936       -0.82060        2.46366
C          0.70370       -1.88362        3.26039
H          1.16253       -2.86451        3.12369
C          0.56078        0.44449        2.61530
H          0.88085        1.26388        1.97035
C         -0.28275       -1.68213        4.22300
H         -0.62984       -2.49417        4.86430
C         -0.42655        0.65183        3.57360
H         -0.89339        1.62961        3.70291
C         -0.83169       -0.41379        4.36675
F         -1.78732       -0.22111        5.28119
C          4.54196       -1.27917       -0.14777
C          5.04071       -1.40005        1.14742
H          4.44654       -1.90683        1.90690
C          5.29403       -0.65638       -1.14224
H          4.88860       -0.59217       -2.15275
C          6.27279       -0.83437        1.46366
H          6.67087       -0.90292        2.47725
C          6.52174       -0.08655       -0.82819
H          7.10452        0.43641       -1.58763
C          6.99842       -0.16415        0.48051
Cl         8.50448        0.58710        0.88826
C          2.82449        1.25433       -0.57267
C          3.11895        1.87830       -1.78433
H          2.54516        1.60404       -2.67173
C          3.53153        1.58948        0.58334
H          3.30031        1.09769        1.52716
C          4.15352        2.80541       -1.85734
H          4.40362        3.28857       -2.80313
C          4.57619        2.50442        0.50847
H          5.16322        2.74604        1.39559
C          4.89061        3.10112       -0.71177
Cl         6.21881        4.20704       -0.80769
C         -3.27134        0.13611       -2.53757
C         -3.72594        1.45098       -2.45527
H         -3.07589        2.22326       -2.04410
C         -4.08113       -0.86444       -3.07442
H         -3.69919       -1.88451       -3.13761
C         -5.00919        1.76499       -2.89567
H         -5.39131        2.78571       -2.84120
C         -5.36578       -0.55449       -3.51126
H         -6.02312       -1.31731       -3.93187
C         -5.81578        0.75810       -3.41274
F         -7.04466        1.05662       -3.82886
C         -3.83616       -0.95886        0.74777
C         -5.03745       -0.35773        0.37904
H         -5.33018       -0.33503       -0.67112
C         -3.44609       -1.00448        2.08561
H         -2.49907       -1.47569        2.35232
C         -5.84503        0.22010        1.35525
H         -6.78596        0.69986        1.08191
C         -4.24495       -0.41917        3.06278
H         -3.93222       -0.42569        4.10757
C         -5.44082        0.19614        2.68993
Cl        -6.43279        0.94079        3.89891
C         -1.56754        1.61984        0.14530
C         -2.57810        2.24679        0.87310
H         -3.20771        1.65714        1.53976
C         -0.74263        2.35529       -0.70596
H          0.05099        1.84242       -1.24906
C         -2.77975        3.61672        0.73149
H         -3.57102        4.11953        1.28953
C         -0.94550        3.72436       -0.85030
H         -0.30970        4.31169       -1.51446
C         -1.96807        4.34888       -0.13521
Cl        -2.22672        6.05112       -0.31926
