90
Cat510.ts34.5.log	Energy: -1818496.7242238
C          1.16174       -1.77490       -3.15250
H          0.75446       -1.71162       -4.16493
H          2.22124       -1.51859       -3.07922
C          0.65554       -2.81421       -2.30016
H         -0.16911       -3.44302       -2.64555
H          1.37429       -3.34259       -1.66118
H          0.35536       -2.09877       -0.91958
Ir        -0.18507       -0.76511       -1.78706
O          2.93671       -0.01046       -0.54043
O          1.74123        1.92974       -1.52670
O          1.02893        1.10019        0.73251
O         -2.14541        0.42990        0.74835
O         -3.42091       -0.52987       -1.23442
O         -2.35440       -1.98694        0.47168
P         -1.98662       -0.68622       -0.46279
P          1.37282        0.52090       -0.77426
C         -1.08341        0.13566       -3.20996
O         -1.61408        0.70471       -4.05568
C          3.27129       -1.32428       -0.36577
C          4.22427       -1.87790       -1.22243
H          4.66094       -1.24784       -1.99994
C          2.70285       -2.10740        0.63799
H          1.97524       -1.67624        1.32687
C          4.59439       -3.21028       -1.08151
H          5.33838       -3.63201       -1.76304
C          3.08132       -3.44368        0.76078
H          2.62938       -4.04871        1.55127
C          4.02615       -4.02353       -0.09110
C          4.44405       -5.45712        0.06270
H          5.44292       -5.53280        0.52343
H          4.49760       -5.96797       -0.91070
H          3.74356       -6.01455        0.70048
C          2.53667        2.89602       -0.95415
C          3.90498        2.90747       -1.21734
H          4.32650        2.13917       -1.86647
C          1.95711        3.85132       -0.12114
H          0.88590        3.80117        0.07466
C          4.70181        3.89146       -0.63414
H          5.77547        3.90486       -0.83640
C          2.76413        4.82765        0.45776
H          2.31454        5.57158        1.11997
C          4.13615        4.85084        0.20593
H          4.76565        5.61653        0.66474
C          1.65555        0.87173        1.92637
C          0.94676        0.17872        2.90871
H         -0.05864       -0.18059        2.68330
C          2.94956        1.33330        2.17084
H          3.48891        1.87298        1.39218
C          1.53981       -0.05131        4.14791
H          0.98189       -0.59654        4.91216
C          3.53184        1.08962        3.41277
H          4.54637        1.44699        3.60461
C          2.83379        0.40046        4.40422
H          3.29896        0.21501        5.37494
C         -1.92755        1.77593        0.64496
C         -1.64985        2.46375        1.82415
H         -1.58678        1.90565        2.75918
C         -2.00624        2.47001       -0.56319
H         -2.23943        1.94835       -1.49167
C         -1.44475        3.83847        1.79076
H         -1.22239        4.36457        2.72307
C         -1.79383        3.84665       -0.57793
H         -1.85140        4.37618       -1.53272
C         -1.50793        4.55905        0.59152
C         -1.24308        6.03630        0.54922
H         -1.26679        6.47882        1.55515
H         -1.98453        6.56228       -0.07107
H         -0.25159        6.24897        0.11475
C         -4.63099       -0.46586       -0.57128
C         -5.19247        0.77681       -0.28808
H         -4.65506        1.68541       -0.56410
C         -5.28936       -1.64566       -0.22964
H         -4.81941       -2.60164       -0.46232
C         -6.43171        0.83509        0.34646
H         -6.87492        1.80835        0.56974
C         -6.52746       -1.57458        0.40445
H         -7.04763       -2.49710        0.67297
C         -7.10144       -0.33699        0.69522
H         -8.07267       -0.28637        1.19238
C         -1.78418       -2.27773        1.68334
C         -2.33679       -1.74179        2.84703
H         -3.18943       -1.06706        2.76181
C         -0.69405       -3.14497        1.74231
H         -0.29019       -3.55817        0.81686
C         -1.78644       -2.08024        4.08095
H         -2.21881       -1.66522        4.99452
C         -0.15091       -3.47311        2.98330
H          0.70064       -4.15534        3.03638
C         -0.69284       -2.94410        4.15351
H         -0.26532       -3.20884        5.12304
