100
Cat525.ts34.5.log	Energy: -1618415.4081267
C         -1.39403       -2.92576       -1.80028
H         -1.26031       -3.95781       -1.46552
H         -2.44146       -2.63364       -1.93307
C         -0.43760       -2.40578       -2.74195
H          0.43025       -3.01173       -3.01587
H         -0.81702       -1.80239       -3.57471
H         -0.05614       -0.96742       -2.19423
Ir        -0.12648       -1.60915       -0.63818
O         -2.62298        0.32758       -1.67362
C         -3.31716       -1.00662        0.66503
C         -1.66717        1.35229        0.70266
O          1.48250        1.08100        0.43919
C          2.99495       -1.13854        0.95311
C          2.78269       -0.02784       -1.72313
P          1.78022       -0.44937       -0.23629
P         -1.91410       -0.20800       -0.22746
C          0.19936       -2.82900        0.76795
O          0.40383       -3.53387        1.66359
C         -3.87862        0.83784       -1.79101
C         -4.11087        2.20607       -1.62227
H         -3.26866        2.86393       -1.40227
C         -4.94188       -0.00868       -2.11850
H         -4.74254       -1.06996       -2.27835
C         -5.40149        2.71743       -1.73155
H         -5.60630        3.78112       -1.59719
C         -6.23435        0.49563       -2.22823
H         -7.07953       -0.14979       -2.47421
C         -6.45075        1.85342       -2.02194
F         -7.68845        2.33920       -2.11964
H         -3.73667       -1.73623       -0.04831
H         -2.82387       -1.62022        1.43751
C         -4.41764       -0.14803        1.27952
H         -4.00715        0.43033        2.12432
H         -4.78450        0.59558        0.55599
C         -5.59992       -0.97514        1.76481
H         -5.25404       -1.72309        2.50152
H         -6.00453       -1.55556        0.91536
C         -6.71384       -0.13403        2.37187
H         -6.30755        0.44960        3.21707
H         -7.04508        0.61095        1.62668
C         -7.90436       -0.95428        2.84099
H         -8.69238       -0.31830        3.27195
H         -7.60838       -1.68518        3.61075
H         -8.35237       -1.51941        2.00773
H         -0.94160        1.93296        0.11182
H         -2.60992        1.92115        0.74811
C         -1.10292        1.09319        2.09444
H         -1.87419        0.63826        2.74032
H         -0.29154        0.35213        2.01013
C         -0.55700        2.35074        2.75418
H         -1.37226        3.08208        2.90415
H          0.15717        2.83181        2.06398
C          0.14001        2.08360        4.07995
H         -0.57618        1.63100        4.78855
H          0.92126        1.31884        3.92083
C          0.76123        3.32765        4.69363
H          1.25731        3.10706        5.65119
H          0.00077        4.10199        4.88441
H          1.51427        3.76628        4.01880
C          2.35860        2.11000        0.57938
C          2.39994        3.11689       -0.39029
H          1.74205        3.04148       -1.25798
C          3.16748        2.21109        1.71544
H          3.10033        1.44315        2.48728
C          3.27064        4.19337       -0.24987
H          3.32219        4.98631       -0.99818
C          4.03931        3.28695        1.86268
H          4.67985        3.38367        2.74115
C          4.08780        4.26160        0.87302
F          4.92428        5.28983        1.00964
H          3.79767       -0.40367        1.12567
H          2.44035       -1.24667        1.90063
C          3.57225       -2.48289        0.52500
H          2.75810       -3.13328        0.16556
H          4.24699       -2.34146       -0.33727
C          4.32182       -3.18632        1.64734
H          3.62797       -3.34490        2.49232
H          5.12391       -2.52875        2.03032
C          4.91700       -4.52300        1.22844
H          4.10822       -5.16935        0.84486
H          5.60276       -4.36430        0.37700
C          5.65216       -5.23464        2.35250
H          6.06874       -6.19768        2.02053
H          4.97999       -5.43811        3.20152
H          6.48723       -4.62480        2.73381
H          2.73703       -0.92856       -2.35690
H          2.18762        0.73365       -2.25612
C          4.22556        0.42976       -1.53969
H          4.29486        1.20155       -0.75814
H          4.83864       -0.41525       -1.18423
C          4.82967        0.98447       -2.82213
H          4.21148        1.83083       -3.17382
H          4.77480        0.22127       -3.61982
C          6.26923        1.45020       -2.65630
H          6.30908        2.20795       -1.85369
H          6.88443        0.60509       -2.29958
C          6.87092        2.02027       -3.93030
H          7.90974        2.34961       -3.77736
H          6.29629        2.88956       -4.28875
H          6.87458        1.27320       -4.74034
