92
Cat586.ts34.5.log	Energy: -2160727.9212144
C         -2.73683        1.33422        1.78893
H         -2.67770        1.67936        2.82474
H         -3.30459        2.00129        1.13283
C         -2.85932       -0.08407        1.56910
H         -2.78661       -0.76944        2.41862
H         -3.56678       -0.42932        0.80535
H         -1.85751       -0.35874        0.35565
Ir        -0.78872        0.69359        1.09533
O         -2.18015        2.08409       -1.68357
O         -0.50746        3.59036       -0.74683
O          0.34087        1.58778       -1.88846
O          2.25765       -0.05373        0.12924
O          1.32500       -1.96186        1.52519
O          0.58367       -1.68534       -0.79210
P          0.82809       -0.77041        0.52471
P         -0.75817        1.98413       -0.77128
C          0.15318        1.41634        2.58240
O          0.73008        1.87632        3.47113
C         -2.91394        0.97414       -1.95675
C         -4.28622        0.99958       -1.69594
H         -4.72647        1.90868       -1.28192
C         -2.32880       -0.17930       -2.48954
H         -1.25397       -0.20099       -2.67659
C         -5.07180       -0.11960       -1.95357
H         -6.14266       -0.10925       -1.74452
C         -3.11350       -1.29794       -2.75400
H         -2.66668       -2.20139       -3.17226
C         -4.47774       -1.26952       -2.47298
Cl        -5.44172       -2.68340       -2.76110
C         -1.32495        4.49625       -0.01408
H         -1.30352        5.43447       -0.59109
H         -2.36848        4.13974       -0.00946
C         -0.81607        4.72697        1.39436
H         -1.44630        5.51184        1.84912
H         -0.97672        3.81517        1.99092
C          0.65042        5.12914        1.45659
H          0.80916        6.02685        0.83191
H          1.25232        4.32928        0.99463
C          1.13807        5.38664        2.87283
H          0.56151        6.19126        3.35787
H          1.03979        4.48222        3.49247
H          2.19766        5.68395        2.88499
C          0.64204        2.39396       -3.03148
H          0.79268        1.68383       -3.86073
H         -0.22195        3.03042       -3.27824
C          1.88821        3.22129       -2.79603
H          2.09577        3.79142       -3.71934
H          1.66889        3.96197       -2.00997
C          3.09928        2.38889       -2.40066
H          3.32771        1.66829       -3.20665
H          2.83221        1.78356       -1.52079
C          4.33033        3.22475       -2.09549
H          4.64226        3.82491       -2.96598
H          4.13750        3.92414       -1.26587
H          5.18190        2.59148       -1.80395
C          3.35373       -0.75990       -0.29503
C          3.45361       -1.16433       -1.62604
H          2.62997       -0.94661       -2.30593
C          4.38685       -1.02010        0.60271
H          4.28946       -0.68599        1.63714
C          4.59334       -1.83347       -2.06010
H          4.68915       -2.15474       -3.09845
C          5.52954       -1.68766        0.17163
H          6.34853       -1.89557        0.86184
C          5.62571       -2.09279       -1.15881
Cl         7.04666       -2.92544       -1.70032
C          1.38412       -1.80528        2.93954
H          2.28633       -2.34940        3.26209
H          1.52366       -0.74497        3.20386
C          0.14285       -2.35737        3.60592
H          0.21380       -2.15423        4.68878
H         -0.72022       -1.77428        3.23968
C         -0.07884       -3.84343        3.36302
H          0.74522       -4.41583        3.82425
H         -0.01048       -4.04166        2.28097
C         -1.41436       -4.33897        3.89170
H         -1.50337       -4.17785        4.97809
H         -2.25174       -3.80554        3.41275
H         -1.55465       -5.41370        3.70118
C          0.12347       -3.03219       -0.76025
H          0.17524       -3.37377       -1.80575
H          0.82529       -3.64409       -0.17138
C         -1.28927       -3.16423       -0.22969
H         -1.32099       -2.81235        0.81523
H         -1.94718       -2.48911       -0.79897
C         -1.81852       -4.58824       -0.30355
H         -1.18120       -5.24961        0.31024
H         -1.72626       -4.96059       -1.33963
C         -3.26611       -4.70085        0.14792
H         -3.38900       -4.33734        1.18069
H         -3.93171       -4.10581       -0.49728
H         -3.61883       -5.74270        0.11882
