98
Cat507.ts34.5.log	Energy: -1728344.1582952
C         -0.84038        1.65592       -2.61762
H         -0.18271        1.58639       -3.48715
H         -1.90474        1.52488       -2.83393
C         -0.46497        2.53508       -1.55680
H          0.49082        3.06487       -1.61413
H         -1.25153        3.10992       -1.05541
H         -0.38598        1.78373       -0.23543
Ir        -0.04869        0.33665       -1.06118
O         -3.36642        0.57502       -0.36542
C         -2.77323       -1.80746       -1.31390
C         -2.25632       -1.13414        1.45302
O          2.36270       -0.26800        1.39442
C          3.53447        0.27528       -0.98710
C          2.22474        2.26248        0.60945
P          1.98434        0.56269       -0.03309
P         -2.06150       -0.49500       -0.25909
C          0.37515       -1.14261       -2.13916
O          0.62087       -2.07802       -2.76857
C         -3.28981        1.86237        0.06505
C         -3.91605        2.84534       -0.70295
H         -4.44859        2.54706       -1.60809
C         -2.61122        2.22669        1.23177
H         -2.14938        1.45963        1.85397
C         -3.82793        4.18254       -0.32590
H         -4.31146        4.94322       -0.94491
C         -2.51776        3.56995        1.58338
H         -1.96027        3.84178        2.48411
C         -3.11279        4.57529        0.81201
C         -2.99356        6.01879        1.20719
H         -1.94321        6.29737        1.38555
H         -3.54719        6.22722        2.13733
H         -3.39132        6.68373        0.42772
C         -3.74984       -1.46027       -2.25693
H         -4.12975       -0.43823       -2.27249
C         -2.26579       -3.12383       -1.27351
C         -1.22047       -3.56432       -0.29162
H         -1.65740       -3.75381        0.70158
H         -0.43500       -2.80836       -0.14874
H         -0.73612       -4.48982       -0.63166
C         -4.24362       -2.40286       -3.15267
H         -5.00798       -2.11587       -3.87862
C         -2.77824       -4.05090       -2.18864
H         -2.38886       -5.07240       -2.16776
C         -3.75550       -3.70663       -3.11723
H         -4.13062       -4.45674       -3.81755
C         -1.07637       -1.25083        2.19313
H         -0.13881       -0.95978        1.71272
C         -3.49221       -1.51437        2.02596
C         -4.80213       -1.42393        1.30070
H         -4.75563       -1.91669        0.31896
H         -5.08092       -0.37773        1.10958
H         -5.60081       -1.89565        1.88919
C         -1.08334       -1.74185        3.49467
H         -0.14517       -1.84039        4.04335
C         -3.47543       -1.99656        3.34027
H         -4.42250       -2.29476        3.79843
C         -2.29441       -2.11237        4.07075
H         -2.32497       -2.49878        5.09263
C          2.35540       -1.61704        1.52278
C          2.41298       -2.12359        2.82657
H          2.47297       -1.41785        3.65785
C          2.31170       -2.50539        0.44637
H          2.30543       -2.13830       -0.57917
C          2.39122       -3.49487        3.04503
H          2.43348       -3.87098        4.07136
C          2.28488       -3.87884        0.68681
H          2.24224       -4.55748       -0.16949
C          2.31164       -4.40365        1.98044
C          2.23940       -5.88239        2.22898
H          2.93311       -6.19381        3.02472
H          2.48411       -6.45470        1.32280
H          1.22648       -6.18329        2.54538
C          3.39868        0.13195       -2.37272
H          2.39545        0.19603       -2.80069
C          4.82348        0.23630       -0.40200
C          5.08872        0.41042        1.06574
H          4.86357       -0.51242        1.62203
H          4.47267        1.20509        1.50683
H          6.14744        0.65473        1.23020
C          4.50145       -0.07304       -3.19662
H          4.36594       -0.18481       -4.27454
C          5.91660        0.02732       -1.25193
H          6.91761       -0.00474       -0.81299
C          5.76902       -0.13242       -2.62741
H          6.65017       -0.29461       -3.25314
C          2.93812        3.15464       -0.20259
H          3.42699        2.78220       -1.10591
C          1.58820        2.73592        1.77882
C          0.80284        1.84671        2.69516
H          1.46358        1.16475        3.24901
H          0.10760        1.21235        2.12832
H          0.22733        2.44132        3.41789
C          3.03504        4.50538        0.12029
H          3.59619        5.18171       -0.52847
C          1.70423        4.09756        2.08296
H          1.21683        4.47191        2.98759
C          2.41368        4.97924        1.27171
H          2.47862        6.03625        1.54078
