102
Cat503.ts34.5.log	Energy: -1917009.3031568
C         -1.97641       -2.74006       -2.04914
H         -1.91539       -3.79204       -1.75837
H         -2.99679       -2.34541       -2.07143
C         -1.03102       -2.26197       -3.01357
H         -0.23524       -2.92142       -3.37104
H         -1.38166       -1.56394       -3.78144
H         -0.38112       -0.87766       -2.41708
Ir        -0.54336       -1.57733       -0.90508
O         -2.91082        1.17268       -0.86720
C         -3.79871       -1.02132        0.18304
C         -1.89582        0.57550        1.54350
O          1.60166       -0.62664        1.35827
C          2.94983       -1.14922       -0.96481
C          1.51799        1.29193       -0.58862
P          1.38413       -0.49951       -0.30276
P         -2.20813       -0.16346       -0.10337
C         -0.10163       -3.02291        0.23277
O          0.18406       -3.89683        0.93442
C         -2.32036        2.18137       -1.56462
C         -1.31502        1.97849       -2.51299
H         -0.91776        0.97526       -2.66048
C         -2.82120        3.47003       -1.36906
H         -3.62231        3.62159       -0.64276
C         -0.82964        3.05450       -3.24637
H         -0.04287        2.87453       -3.98364
C         -2.32480        4.53685       -2.11562
H         -2.74251        5.53592       -1.95864
C         -1.31884        4.35448       -3.06901
C         -0.76833        5.49856       -3.86986
H         -0.81689        5.29356       -4.95089
H          0.28818        5.67933       -3.61459
H         -1.32551        6.42736       -3.67993
C         -3.77406       -2.25909        0.84490
H         -2.81521       -2.69064        1.14371
C         -5.02928       -0.50351       -0.21721
H         -5.06223        0.45592       -0.73512
C         -4.94546       -2.94680        1.10932
H         -4.93587       -3.90845        1.62568
C         -6.21690       -1.19517        0.03166
H         -7.16123       -0.76445       -0.30252
C         -6.18128       -2.42112        0.70197
O         -7.26847       -3.16426        0.99179
C         -8.52802       -2.69295        0.60697
H         -8.60749       -2.57731       -0.48873
H         -9.25975       -3.44105        0.93787
H         -8.76836       -1.72512        1.08207
C         -2.40867        1.82896        1.90989
H         -3.07031        2.35998        1.22510
C         -1.07416       -0.09837        2.44694
H         -0.65160       -1.06503        2.17026
C         -2.05937        2.41076        3.11883
H         -2.43381        3.39535        3.40614
C         -0.72625        0.46845        3.67116
H         -0.06072       -0.08085        4.33682
C         -1.20080        1.74145        4.00511
O         -0.88462        2.39520        5.13981
C          0.01643        1.79546        6.02955
H          0.99292        1.59873        5.55223
H          0.15838        2.50185        6.85733
H         -0.37583        0.84626        6.43491
C          2.76309       -0.39421        2.03627
C          3.07064        0.87711        2.51949
H          2.38735        1.70461        2.32764
C          3.62983       -1.46114        2.28320
H          3.36803       -2.44858        1.89829
C          4.25203        1.07347        3.23398
H          4.48847        2.07484        3.60487
C          4.80251       -1.24846        2.99777
H          5.47667       -2.09041        3.17894
C          5.13997        0.02228        3.48377
C          6.40660        0.23536        4.26159
H          7.27740       -0.18354        3.73370
H          6.35883       -0.25816        5.24626
H          6.59814        1.30378        4.43450
C          4.18456       -0.50764       -0.74783
H          4.22273        0.44300       -0.21154
C          2.94466       -2.36531       -1.64952
H          1.98369       -2.86403       -1.81083
C          5.36329       -1.07029       -1.20362
H          6.32627       -0.58458       -1.03667
C          4.12453       -2.94265       -2.11523
H          4.08011       -3.89298       -2.64730
C          5.34480       -2.29472       -1.89128
O          6.53802       -2.76376       -2.29497
C          6.59045       -3.98307       -2.98347
H          6.02381       -3.94384       -3.93021
H          7.64753       -4.17057       -3.20991
H          6.20266       -4.81608       -2.37145
C          2.21456        1.83230       -1.67940
H          2.77140        1.17652       -2.35249
C          0.80245        2.16109        0.24022
H          0.24293        1.76446        1.08876
C          2.20356        3.19764       -1.92045
H          2.74351        3.62811       -2.76590
C          0.77673        3.53145        0.00426
H          0.19103        4.16925        0.66555
C          1.47809        4.05837       -1.08548
O          1.50547        5.36582       -1.40663
C          0.75812        6.26418       -0.63094
H          1.11120        6.29009        0.41470
H          0.89879        7.25627       -1.07812
H         -0.31561        6.01066       -0.64295
