92
Cat595.ts34.5.log	Energy: -2255683.8825073
C         -1.08679       -3.95340       -0.35779
H         -0.74150       -4.71759        0.34377
H         -2.17590       -3.87197       -0.43302
C         -0.30204       -3.75353       -1.54527
H          0.64407       -4.28908       -1.66572
H         -0.83473       -3.61187       -2.49305
H         -0.10561       -2.20077       -1.68294
Ir        -0.00570       -2.11451       -0.00018
O         -2.02393        0.30662       -1.30742
C         -3.47564       -1.61389       -0.09435
C         -2.11181        0.37633        1.43632
O          2.02910        0.19100        1.21529
C          3.43526       -1.68354       -0.12608
C          2.06184        0.39566       -1.53138
P          1.84529       -0.78554       -0.16050
P         -1.86688       -0.75700        0.02298
C          0.56458       -2.66234        1.72249
O          0.89678       -2.98281        2.78043
C         -2.65163        1.51386       -1.27065
C         -3.98532        1.63840       -1.66423
H         -4.53725        0.74997       -1.97378
C         -1.93873        2.64584       -0.86734
H         -0.89614        2.53059       -0.56839
C         -4.60551        2.88495       -1.64325
H         -5.64825        2.99234       -1.94634
C         -2.55289        3.89224       -0.84204
H         -2.00420        4.77860       -0.52009
C         -3.88871        4.00553       -1.22707
Cl        -4.66350        5.55612       -1.19046
C         -4.01733       -1.90416       -1.35173
H         -3.53821       -1.50777       -2.25013
C         -4.07038       -2.15482        1.05047
H         -3.63144       -1.95066        2.03174
C         -5.15536       -2.70210       -1.44703
H         -5.58002       -2.92828       -2.42836
C         -5.21357       -2.95582        0.96807
C         -5.86275       -3.49300        2.21030
H         -6.36298       -4.45369        2.02076
H         -5.12911       -3.63939        3.01589
H         -6.62781       -2.79370        2.58712
C         -5.74944       -3.22062       -0.29876
H         -6.63947       -3.85003       -0.38473
C         -3.34579        0.98908        1.70210
H         -4.22448        0.74502        1.10228
C         -1.00257        0.69166        2.22359
H         -0.04849        0.20154        2.01394
C         -3.44344        1.91401        2.73509
H         -4.40162        2.39601        2.94333
C         -1.08792        1.62270        3.26669
C          0.12755        1.95869        4.08073
H          0.71584        1.05707        4.30564
H          0.79382        2.64252        3.52913
H         -0.14123        2.44484        5.02920
C         -2.32411        2.22978        3.50666
H         -2.41581        2.95745        4.31813
C          2.69798        1.37811        1.24384
C          2.01621        2.55296        0.91790
H          0.96608        2.48902        0.62969
C          4.03916        1.43467        1.62553
H          4.56417        0.51248        1.87733
C          2.67068        3.77842        0.95708
H          2.14680        4.69953        0.69750
C          4.69939        2.66001        1.66769
H          5.74855        2.71592        1.96228
C          4.01454        3.82547        1.32772
Cl         4.83938        5.34944        1.36961
C          3.99811       -2.05451        1.09980
H          3.52769       -1.73857        2.03337
C          4.02557       -2.12232       -1.31655
H          3.58155       -1.83950       -2.27554
C          5.15025       -2.83625        1.11955
H          5.59463       -3.12144        2.07632
C          5.17896       -2.91186       -1.30819
C          5.79259       -3.39290       -2.59116
H          5.52554       -4.44524       -2.78383
H          5.44608       -2.80152       -3.45036
H          6.89098       -3.33841       -2.55756
C          5.73721       -3.25787       -0.07108
H          6.64368       -3.86896       -0.04253
C          3.29624        1.01267       -1.78394
H          4.18192        0.73512       -1.20962
C          0.94172        0.75754       -2.28336
H         -0.01700        0.27564       -2.07844
C          3.38535        1.98589       -2.77289
H          4.34394        2.47114       -2.97094
C          1.01936        1.73761       -3.28042
C         -0.20486        2.13795       -4.05121
H         -0.92515        1.31041       -4.11414
H         -0.72405        2.97418       -3.55393
H          0.04667        2.46325       -5.07113
C          2.25773        2.34559       -3.51106
H          2.34303        3.11220       -4.28670
