88
Cat696.ts34.5.log	Energy: -1691793.5179003
C          1.88686       -3.43680       -1.54669
H          1.78335       -3.72405       -2.59668
H          2.92076       -3.47104       -1.18877
C          0.85080       -3.88651       -0.64525
H         -0.01828       -4.41377       -1.05188
H          1.16518       -4.30116        0.32105
H          0.48007       -2.66475        0.21535
Ir         0.69919       -1.68406       -1.16010
C          2.05782        0.23392        1.65879
C          3.95964       -1.37038        0.19761
C          2.96983        1.06498       -0.91813
C         -1.96096        0.54404       -1.81874
C         -2.70282       -2.11424       -0.74962
C         -1.54693       -0.02959        1.04319
P         -1.39092       -0.77139       -0.66778
P          2.34151       -0.45183       -0.03406
C          0.58712       -1.16372       -2.95748
O          0.53807       -0.79105       -4.05602
H          2.97469        0.74052        2.00735
H          1.29693        1.02416        1.54235
C          1.58872       -0.80042        2.67165
H          2.38872       -1.54044        2.84523
H          0.75491       -1.37473        2.23424
C          1.16454       -0.18272        3.99448
H          1.98881        0.38369        4.45656
H          0.32411        0.51595        3.85263
H          0.84158       -0.95035        4.71411
H          3.69970       -2.27216        0.77417
H          4.22968       -1.71541       -0.81198
C          5.09327       -0.62943        0.83179
C          6.01360        0.08453        0.05024
H          5.92213        0.06370       -1.03880
C          5.26159       -0.60316        2.22370
H          4.57657       -1.16936        2.85941
C          7.05051        0.81222        0.62754
H          7.76913        1.36508        0.01988
C          6.29241        0.11859        2.81944
H          6.42687        0.13634        3.90247
C          7.17419        0.82476        2.01111
F          8.16284        1.51871        2.57290
H          3.84552        1.44127       -0.36647
H          3.31851        0.70111       -1.89688
C          1.96514        2.16129       -1.09441
C          1.15454        2.22876       -2.23448
H          1.25040        1.46869       -3.01208
C          1.82137        3.16230       -0.12254
H          2.46181        3.14799        0.76295
C          0.21888        3.24851       -2.39563
H         -0.41826        3.30085       -3.28009
C          0.88597        4.18471       -0.26401
H          0.76756        4.96129        0.49376
C          0.08657        4.20644       -1.39993
F         -0.84274        5.15838       -1.52592
H         -1.34467        1.41448       -1.54749
H         -1.59256        0.23602       -2.81018
C         -3.42780        0.94325       -1.91152
H         -3.86414        1.07162       -0.91050
H         -3.99574        0.13310       -2.39850
C         -3.59923        2.22957       -2.70672
H         -3.08096        3.06683       -2.21296
H         -3.18372        2.13169       -3.72296
H         -4.66017        2.50537       -2.80337
H         -3.03942       -2.11590       -1.79778
H         -2.13095       -3.04228       -0.61318
C         -3.85930       -2.08941        0.20305
C         -3.72135       -2.64955        1.48160
H         -2.77277       -3.11540        1.76315
C         -5.10193       -1.54070       -0.13765
H         -5.24881       -1.11456       -1.13109
C         -4.76825       -2.64088        2.40009
H         -4.66263       -3.07768        3.39471
C         -6.16238       -1.52627        0.76387
H         -7.13119       -1.09932        0.49869
C         -5.98042       -2.07154        2.02877
F         -6.98969       -2.05980        2.89763
H         -1.78453       -0.85931        1.72467
H         -0.52016        0.27951        1.26839
C         -2.47315        1.13042        1.23702
C         -2.05835        2.41169        0.85045
H         -1.04640        2.55636        0.46643
C         -3.75922        0.98420        1.76896
H         -4.09961        0.00171        2.09912
C         -2.90948        3.50908        0.93361
H         -2.59141        4.50065        0.60624
C         -4.62194        2.07273        1.87070
H         -5.62833        1.96444        2.27921
C         -4.19104        3.32103        1.43755
F         -5.02002        4.36139        1.51971
