96
Cat692.ts34.5.log	Energy: -1257707.0959699
C          1.00019       -3.13432        0.57094
H          1.23925       -3.83595       -0.23356
H          1.80694       -3.03027        1.30501
C         -0.35831       -3.15040        1.06543
H         -1.10007       -3.77627        0.56037
H         -0.50744       -3.13770        2.15237
H         -0.75884       -1.64329        1.20722
Ir         0.10644       -1.34380       -0.21649
C          1.17642        0.95359        2.44826
C          3.25588       -0.53739        1.18972
C          1.97906        1.61911       -0.22615
C         -1.18588        1.07769       -2.38487
C         -3.20328       -0.62874       -1.23777
C         -1.97625        1.39908        0.43635
P         -1.56787        0.12897       -0.84920
P          1.57909        0.14941        0.82618
C          0.53860       -1.71688       -2.01175
O          0.81334       -1.91403       -3.12167
H          2.05328        1.51621        2.81343
H          0.38616        1.69560        2.24161
C          0.69620       -0.02839        3.50717
H          1.48935       -0.76768        3.71425
H         -0.14654       -0.60594        3.09078
C          0.27840        0.64837        4.80328
H          1.11227        1.21185        5.25180
H         -0.54431        1.36151        4.63142
H         -0.06778       -0.08422        5.54833
H          3.10734       -1.34836        1.92280
H          3.85636        0.23736        1.69396
C          3.95161       -1.08035       -0.04904
H          3.23549       -1.71531       -0.59675
H          4.20021       -0.24768       -0.73323
C          5.22524       -1.88139        0.22775
H          4.95012       -2.70864        0.90965
C          5.75166       -2.49643       -1.06363
H          4.98923       -3.12594       -1.54773
H          6.64127       -3.11927       -0.88115
H          6.03752       -1.71039       -1.78269
C          6.30143       -1.04624        0.91277
H          7.21318       -1.63775        1.09025
H          5.96693       -0.65608        1.88594
H          6.58273       -0.18335        0.28488
H          1.02841        2.16992       -0.33410
H          2.19094        1.19742       -1.22097
C          3.08419        2.56173        0.22482
H          2.89406        2.89413        1.25930
H          4.04837        2.02304        0.25094
C          3.24866        3.80511       -0.65587
H          2.27865        4.33862       -0.65752
C          4.29554        4.74053       -0.06200
H          4.04159        5.02723        0.97060
H          4.39359        5.66377       -0.65388
H          5.28530        4.25450       -0.03834
C          3.59099        3.45282       -2.09944
H          3.73193        4.36087       -2.70582
H          2.80345        2.85426       -2.58106
H          4.52769        2.87193       -2.14795
H         -0.17149        1.48011       -2.23008
H         -1.06816        0.30202       -3.16148
C         -2.12335        2.17619       -2.86658
H         -2.16897        2.98143       -2.11486
H         -3.15102        1.78656       -2.96036
C         -1.67967        2.76096       -4.19987
H         -0.66463        3.18379       -4.12930
H         -1.65868        1.98897       -4.98529
H         -2.35425        3.56338       -4.53535
H         -3.04367       -1.22148       -2.15421
H         -3.92419        0.16715       -1.48354
C         -3.71487       -1.52658       -0.12175
H         -2.95391       -2.30177        0.06133
H         -3.79066       -0.95548        0.82283
C         -5.06469       -2.19239       -0.39707
H         -4.98102       -2.72047       -1.36575
C         -5.36759       -3.23025        0.67764
H         -4.57263       -3.98966        0.73797
H         -6.31820       -3.75006        0.48128
H         -5.44790       -2.75381        1.66930
C         -6.20058       -1.18086       -0.50867
H         -7.16176       -1.68061       -0.70550
H         -6.03519       -0.45631       -1.32028
H         -6.30898       -0.61203        0.43075
H         -1.17642        2.15774        0.36704
H         -1.80762        0.87880        1.39085
C         -3.34618        2.06354        0.42471
H         -3.56091        2.48364       -0.56984
H         -4.12723        1.30421        0.60444
C         -3.50804        3.17792        1.46379
H         -2.72941        3.93750        1.25843
C         -4.86827        3.84828        1.30832
H         -5.00943        4.24272        0.28986
H         -4.98853        4.68494        2.01375
H         -5.68237        3.12996        1.50235
C         -3.30890        2.67783        2.89058
H         -3.46089        3.48901        3.61908
H         -2.29835        2.27457        3.05453
H         -4.03028        1.87771        3.12834
