92
Cat677.ts34.5.log	Energy: -1631485.8040488
C          0.97122       -3.24323        1.04092
H          0.99190       -4.10443        0.36626
H          1.92196       -3.06927        1.55692
C         -0.24985       -3.02770        1.78515
H         -1.12924       -3.64206        1.56907
H         -0.16219       -2.80584        2.85652
H         -0.46671       -1.48435        1.71449
Ir         0.03606       -1.55139        0.10562
C          1.67050        1.10440        1.97307
C          3.44536       -0.58293        0.43845
C          1.77148        1.28093       -0.88543
C         -1.62205        0.75725       -1.99216
C         -3.37857       -0.76697       -0.26199
C         -1.78039        1.30824        0.85851
P         -1.68933       -0.06512       -0.34747
P          1.71724        0.04038        0.46921
C          0.05846       -2.23245       -1.65120
O          0.09051       -2.59598       -2.75318
H          2.48627        1.84731        1.95275
H          0.72550        1.66644        1.90554
C          1.69451        0.30747        3.26851
H          2.61726       -0.29581        3.31966
H          0.86064       -0.41390        3.24730
C          1.58408        1.19614        4.49779
H          2.43404        1.89459        4.56445
H          0.66289        1.79992        4.46893
H          1.56948        0.60294        5.42497
C          4.52226        0.11389        1.00965
H          4.35357        1.05691        1.53458
C          3.71965       -1.77474       -0.23453
H          2.88661       -2.33065       -0.67301
C          5.81755       -0.36947        0.91760
H          6.65817        0.16501        1.36439
C          5.01950       -2.26752       -0.34919
H          5.18877       -3.20120       -0.88608
C          6.07948       -1.56602        0.23365
O          7.36797       -1.95828        0.19304
C          7.69046       -3.14262       -0.47974
H          7.42143       -3.09404       -1.54975
H          8.77718       -3.26863       -0.39282
H          7.19265       -4.01983       -0.02981
C          1.90928        0.81077       -2.20431
H          2.04160       -0.25957       -2.38109
C          1.58366        2.64961       -0.69824
H          1.48170        3.06093        0.30676
C          1.83390        1.66959       -3.28545
H          1.92667        1.30343       -4.30953
C          1.48335        3.52859       -1.78263
H          1.31598        4.58935       -1.59254
C          1.59611        3.03923       -3.08560
O          1.48370        3.79367       -4.19824
C          1.22514        5.16119       -4.05908
H          2.03137        5.67937       -3.50997
H          1.16392        5.57622       -5.07312
H          0.26742        5.34677       -3.54008
H         -0.69051        1.34653       -1.98379
H         -1.43104       -0.06472       -2.70149
C         -2.80265        1.59703       -2.45598
H         -3.05744        2.35219       -1.69373
H         -3.69482        0.95730       -2.55080
C         -2.51147        2.28520       -3.78224
H         -1.62696        2.93907       -3.70866
H         -2.29939        1.54781       -4.57261
H         -3.36204        2.89900       -4.11616
C         -4.51180        0.02161       -0.00173
H         -4.39711        1.08930        0.20176
C         -3.55779       -2.13109       -0.49325
H         -2.67078       -2.74852       -0.66901
C         -5.77847       -0.53921        0.01638
H         -6.66564        0.06216        0.22392
C         -4.82760       -2.70776       -0.48728
H         -4.92813       -3.77730       -0.67335
C         -5.94847       -1.91024       -0.23144
O         -7.21492       -2.36688       -0.19402
C         -7.45005       -3.72621       -0.43325
H         -6.95054       -4.36750        0.31428
H         -8.53475       -3.87570       -0.36026
H         -7.11484       -4.03015       -1.44059
C         -2.06509        0.99024        2.19868
H         -2.32838       -0.03801        2.46152
C         -1.44916        2.62729        0.55484
H         -1.21473        2.91448       -0.47078
C         -1.99875        1.94821        3.19332
H         -2.21307        1.70376        4.23537
C         -1.36704        3.60610        1.55109
H         -1.08943        4.62329        1.27342
C         -1.63073        3.26730        2.88020
O         -1.55057        4.12156        3.91886
C         -1.15062        5.44088        3.67621
H         -1.85475        5.96759        3.00811
H         -1.13621        5.95007        4.64804
H         -0.13970        5.48702        3.23355
