106
Cat656.ts34.5.log	Energy: -1872027.5804070
C         -0.30538       -3.69573       -1.36256
H         -0.82727       -3.90365       -2.30039
H          0.70251       -4.11880       -1.31152
C         -1.09328       -3.68681       -0.15678
H         -2.18133       -3.77493       -0.22371
H         -0.66991       -4.16756        0.73352
H         -0.61572       -2.39783        0.64009
Ir        -0.52363       -1.60469       -0.84061
C          2.77281       -1.12148       -2.15694
O          2.12464        0.11610        0.25793
O          2.63057       -2.44760        0.08025
C         -0.74120        0.65938        1.83755
O         -1.47831        1.51589       -0.72125
O         -3.01924       -0.01455        0.72650
P         -1.44115        0.16026        0.21994
P          1.70633       -1.22904       -0.63774
C         -1.26423       -1.13574       -2.52960
O         -1.69020       -0.83664       -3.55898
H          3.51332       -1.92516       -2.04261
H          2.08614       -1.41396       -2.96664
C          3.45833        0.17796       -2.46799
C          4.84676        0.26285       -2.31433
H          5.39262       -0.61465       -1.95886
C          2.74308        1.30543       -2.92047
C          1.25531        1.27086       -3.09959
H          0.72426        1.15103       -2.14235
H          0.93416        0.42917       -3.73282
H          0.89223        2.19573       -3.56871
C          5.53675        1.43989       -2.58220
H          6.61928        1.48190       -2.44297
C          3.45408        2.47981       -3.19224
H          2.90325        3.35503       -3.54838
C          4.83394        2.55784       -3.02342
H          5.35877        3.49140       -3.24033
C          3.37434        0.62191        0.53217
C          3.57554        1.98483        0.31117
H          2.76540        2.57531       -0.11640
C          4.40078       -0.15637        1.06288
H          4.24503       -1.21863        1.24349
C          4.80757        2.55639        0.59344
H          4.95623        3.62141        0.39525
C          5.63392        0.43595        1.33642
H          6.43716       -0.18396        1.74436
C          5.86658        1.79303        1.10377
C          7.20463        2.41919        1.36926
H          7.68773        2.73472        0.42968
H          7.88467        1.71901        1.87450
H          7.11239        3.31655        2.00090
C          2.18623       -3.11964        1.18251
C          2.26957       -4.51270        1.18330
H          2.67747       -5.01551        0.30424
C          1.66985       -2.45612        2.29690
H          1.61660       -1.36680        2.30085
C          1.82712       -5.23314        2.28754
H          1.89339       -6.32466        2.27291
C          1.22239       -3.19365        3.39131
H          0.81210       -2.66315        4.25518
C          1.28830       -4.59055        3.41068
C          0.83033       -5.37739        4.60451
H          0.31601       -6.30269        4.30456
H          0.14200       -4.79341        5.23192
H          1.68380       -5.67148        5.23811
H         -0.86109       -0.26026        2.43367
H          0.33386        0.76559        1.63659
C         -1.33020        1.84907        2.53709
C         -2.54820        1.72179        3.21443
H         -3.04290        0.74845        3.23012
C         -0.67850        3.09857        2.50916
C          0.65256        3.26716        1.83985
H          0.63187        2.90979        0.80090
H          1.44326        2.69950        2.35737
H          0.95422        4.32308        1.82268
C         -3.14546        2.81537        3.83239
H         -4.10030        2.69629        4.34992
C         -1.29670        4.18832        3.13003
H         -0.80157        5.16243        3.09637
C         -2.51988        4.05889        3.78189
H         -2.98045        4.92904        4.25603
C         -1.96079        2.77948       -0.47630
C         -3.17378        3.02301        0.16909
H         -3.77633        2.19244        0.53261
C         -1.19800        3.84240       -0.95371
H         -0.26887        3.62734       -1.48473
C         -3.57931        4.33588        0.37757
H         -4.51881        4.51637        0.90675
C         -1.62375        5.15053       -0.73850
H         -1.01135        5.97809       -1.10727
C         -2.81282        5.42420       -0.05631
C         -3.24823        6.83154        0.22975
H         -3.12163        7.07219        1.29876
H         -4.31165        6.98310       -0.01100
H         -2.66245        7.56172       -0.34651
C         -3.94083       -0.70427       -0.02054
C         -4.55013       -1.82123        0.54407
H         -4.26292       -2.12755        1.55171
C         -4.27579       -0.29993       -1.31168
H         -3.78331        0.56770       -1.75426
C         -5.49869       -2.53106       -0.18734
H         -5.97094       -3.40967        0.26106
C         -5.21903       -1.02570       -2.03249
H         -5.46200       -0.71134       -3.05103
C         -5.85016       -2.15009       -1.48770
C         -6.88693       -2.90660       -2.26684
H         -6.99939       -3.93535       -1.89548
H         -6.62997       -2.95602       -3.33533
H         -7.87408       -2.42028       -2.19186
