48
Cat668.ts34.5.log	Energy: -863311.5998919
C         -2.76536        0.25051       -1.27360
H         -3.57544       -0.46503       -1.10615
H         -3.08262        1.29381       -1.17275
C         -1.82573       -0.06763       -2.32658
H         -1.89885       -1.03497       -2.83246
H         -1.54638        0.73639       -3.01922
H         -0.43378        0.24013       -1.72796
Ir        -0.98707       -0.37907       -0.24648
C          0.90461        2.68112        0.54107
C         -1.91651        2.90005        0.78778
C         -0.42981        1.43249        2.69613
C          2.53258       -0.53631        0.20593
C          1.12302       -2.85204        1.16170
C          1.43583       -2.44830       -1.64469
P          1.01092       -1.53628       -0.10885
P         -0.58704        1.63235        0.87613
C         -1.86170       -1.62247        0.86414
O         -2.37412       -2.37636        1.58006
H          0.83160        3.60509        1.14306
H          1.77147        2.12169        0.92957
C          1.11798        3.00572       -0.92937
H          0.27501        3.61371       -1.30127
H          1.07828        2.06468       -1.50518
C          2.42867        3.72918       -1.19681
H          2.48288        4.68324       -0.64838
H          3.28975        3.11900       -0.87756
H          2.55698        3.95224       -2.26708
H         -2.03865        3.23951       -0.25118
H         -2.86500        2.44374        1.10572
H         -1.69403        3.76965        1.42636
H         -0.28509        2.39420        3.21472
H         -1.33799        0.94111        3.07343
H          0.42167        0.77025        2.91074
H          2.48662        0.29558       -0.51715
H          2.37430       -0.07855        1.19795
C          3.89348       -1.21609        0.14855
H          4.05213       -1.64749       -0.85359
H          3.92187       -2.06453        0.85286
C          5.03025       -0.25576        0.46827
H          5.04529        0.59087       -0.23705
H          4.92521        0.16334        1.48182
H          6.01016       -0.75381        0.41291
H          0.99910       -2.39907        2.15602
H          0.29488       -3.55873        1.01088
H          2.07791       -3.39684        1.12086
H          0.59971       -3.12095       -1.88192
H          1.53538       -1.72816       -2.47016
H          2.36287       -3.03464       -1.55336
