80
Cat633.ts34.5.log	Energy: -1251663.0189160
C          0.06795        0.13803       -3.20316
H         -0.57032        0.84529       -3.74025
H          1.13708        0.31544       -3.37209
C         -0.38415       -1.23083       -3.13196
H         -1.37038       -1.49050       -3.52706
H          0.35208       -2.02435       -3.30731
H         -0.17571       -1.67281       -1.61689
Ir        -0.63131       -0.10693       -1.17978
C          2.78263       -0.98500       -1.07898
C          2.27287        1.83516       -0.73863
C          1.85209        0.00029        1.49086
C         -1.99505       -0.16816        2.18172
C         -3.61764       -1.34545        0.15283
C         -1.21516       -2.70359        1.07319
P         -1.84076       -1.04822        0.54551
P          1.53460        0.19357       -0.32732
C         -1.79500        1.37639       -1.29246
O         -2.50692        2.28321       -1.40157
H          2.75844       -0.77275       -2.16016
H          2.32847       -1.97831       -0.94300
C          4.17810       -0.96208       -0.54586
C          4.56308       -1.85058        0.46814
H          3.84974       -2.60181        0.81863
C          5.12196       -0.03064       -1.00083
H          4.85386        0.65191       -1.81129
C          5.83191       -1.78516        1.03827
H          6.10729       -2.48475        1.83136
C          6.39185        0.03770       -0.43246
H          7.11018        0.77501       -0.79936
C          6.74952       -0.83248        0.59705
H          7.74460       -0.77700        1.04431
H          3.30648        1.89210       -0.35982
H          2.33022        1.85193       -1.84080
C          1.45000        3.02193       -0.25772
H          1.41986        3.02809        0.84586
H          0.40747        2.88676       -0.58725
C          1.99107        4.35344       -0.75350
H          3.02597        4.52330       -0.41472
H          1.99227        4.39397       -1.85452
H          1.37885        5.19416       -0.39249
H          0.91815        0.29772        1.99248
H          1.93829       -1.08849        1.65637
C          3.03001        0.73015        2.12816
H          2.85951        1.81741        2.06534
H          3.95472        0.53348        1.56600
C          3.22981        0.33053        3.58180
H          2.32385        0.51854        4.18089
H          3.46717       -0.74233        3.66602
H          4.05783        0.89009        4.04285
H         -1.00578       -0.23352        2.65990
H         -2.70348       -0.73109        2.80906
C         -2.42753        1.25786        2.03853
C         -3.78318        1.60640        2.05252
H         -4.53626        0.83183        2.22245
C         -1.48254        2.26909        1.83263
H         -0.42313        2.01093        1.80804
C         -4.18263        2.92611        1.85247
H         -5.24583        3.17792        1.86136
C         -1.87759        3.58827        1.63609
H         -1.12220        4.35939        1.46626
C         -3.23077        3.92114        1.63953
H         -3.54367        4.95464        1.47471
H         -4.13494       -1.75331        1.03916
H         -4.03881       -0.34329       -0.03487
C         -3.82877       -2.23349       -1.06423
H         -3.43053       -3.24365       -0.86254
H         -3.22438       -1.82703       -1.89248
C         -5.28892       -2.33308       -1.47633
H         -5.91077       -2.74894       -0.66701
H         -5.69578       -1.34096       -1.72867
H         -5.41499       -2.97948       -2.35835
H         -1.12176       -3.28707        0.14208
H         -0.17937       -2.52587        1.41065
C         -2.00228       -3.48050        2.11897
H         -3.03476       -3.63867        1.76434
H         -2.08684       -2.88841        3.04542
C         -1.36798       -4.82627        2.43934
H         -1.30154       -5.45910        1.54000
H         -0.34535       -4.70189        2.83015
H         -1.94888       -5.37795        3.19397
