74
Cat640.ts34.5.log	Energy: -1202363.9491421
C          0.99949       -3.33085        0.17441
H          0.49456       -4.11252       -0.39987
H          2.07979       -3.29684       -0.00135
C          0.52856       -3.10022        1.51843
H         -0.35417       -3.63661        1.87797
H          1.27688       -2.96841        2.30938
H          0.42300       -1.52716        1.66008
Ir        -0.11734       -1.49215        0.05917
C          2.67214        0.60451        0.85851
C          2.96333       -1.06422       -1.58634
C          1.32802        1.30266       -1.61325
C         -2.41882        1.07121       -0.74496
C         -3.17363       -0.51599        1.57848
C         -1.09118        1.47948        1.76121
P         -1.68112        0.10411        0.67586
P          1.71449       -0.16262       -0.55620
C         -1.23903       -2.04096       -1.34923
O         -1.95264       -2.31810       -2.22311
H          1.91303        1.22181        1.36476
H          2.86760       -0.23819        1.53684
C          3.90585        1.41282        0.59523
C          3.78309        2.74946        0.19401
H          2.78480        3.18879        0.12068
C          5.19801        0.86213        0.74002
C          5.40366       -0.54941        1.21043
H          4.95183       -1.28259        0.52501
H          4.95210       -0.71809        2.20150
H          6.47389       -0.78414        1.28862
C          4.89674        3.52877       -0.10548
H          4.76901        4.56676       -0.42157
C          6.30757        1.65932        0.43976
H          7.30770        1.23088        0.54974
C          6.16955        2.97699        0.00973
H          7.05548        3.57299       -0.22123
H          2.34657       -1.67684       -2.26411
C          4.00504       -0.27700       -2.36778
H          4.63577        0.34806       -1.72184
H          3.53866        0.38358       -3.11361
H          3.43919       -1.79088       -0.90837
H          4.66688       -0.96507       -2.91734
H          2.25493        1.85792       -1.82873
C          0.60417        0.92763       -2.89629
H         -0.27965        0.30870       -2.68427
H          1.25225        0.34635       -3.56982
H          0.70048        1.96578       -0.99381
H          0.27932        1.82514       -3.44470
H         -1.66465        1.83553       -0.98876
H         -2.43992        0.37593       -1.59356
C         -3.76193        1.69210       -0.51035
C         -3.86229        2.92526        0.14625
H         -2.94633        3.45241        0.42619
C         -4.94324        1.04016       -0.92775
C         -4.90249       -0.23699       -1.71915
H         -4.32977       -1.03658       -1.22574
H         -4.42358       -0.08440       -2.70018
H         -5.91727       -0.61593       -1.90145
C         -5.09685        3.50073        0.43389
H         -5.14546        4.46357        0.94791
C         -6.17556        1.63120       -0.62796
H         -7.09130        1.12599       -0.94735
C         -6.26299        2.84266        0.05345
H         -7.24105        3.27720        0.27294
H         -3.86243       -0.88113        0.80202
C         -2.88730       -1.63499        2.56555
H         -2.20635       -1.32191        3.37035
H         -2.41306       -2.48123        2.04744
H         -3.67501        0.34247        2.05557
H         -3.81996       -1.98650        3.03275
H         -1.93618        2.16736        1.92542
C         -0.48799        1.04803        3.08672
H          0.28211        0.27551        2.93761
H         -1.25004        0.63555        3.76381
H         -0.34509        2.02539        1.15915
H         -0.02060        1.90227        3.60016
