114
Cat646.ts34.5.log	Energy: -1593755.0328505
C         -1.41945       -3.02392       -0.70246
H         -1.12281       -3.91896       -0.14869
H         -2.50393       -2.86199       -0.70946
C         -0.68800       -2.72269       -1.90564
H          0.16595       -3.34727       -2.18287
H         -1.25607       -2.39763       -2.78680
H         -0.34151       -1.18314       -1.81568
Ir        -0.12717       -1.38463       -0.15819
C         -2.87909        0.26102       -1.57025
C         -3.39899       -0.74267        1.12723
C         -1.89193        1.74241        0.75533
C          2.23735        0.67294        1.31791
C          3.31791       -1.45891       -0.47825
C          2.10293        1.11453       -1.57673
P          1.92057       -0.23040       -0.28694
P         -2.02841        0.01066        0.08718
C          0.51383       -2.12689        1.44419
O          0.94865       -2.54030        2.43955
H         -2.18650        0.90639       -2.13243
H         -2.82002       -0.72624       -2.04876
C         -4.27271        0.80569       -1.61052
C         -4.48334        2.18234       -1.44927
H         -3.61735        2.84311       -1.36486
C         -5.39271       -0.03821       -1.77980
C         -5.24727       -1.50658       -2.06724
H         -4.74894       -2.05284       -1.25166
H         -4.65039       -1.68294       -2.97659
H         -6.23039       -1.97200       -2.22054
C         -5.76314        2.72396       -1.38459
H         -5.89525        3.79984       -1.24804
C         -6.67316        0.52200       -1.70678
H         -7.54044       -0.13318       -1.82716
C         -6.86861        1.88446       -1.49597
H         -7.88143        2.28979       -1.43880
H         -3.87600       -1.43280        0.40913
C         -4.49074        0.21125        1.62482
H         -4.88138        0.83430        0.81012
H         -4.06240        0.90012        2.37299
C         -5.63397       -0.56339        2.27452
H         -6.40327        0.13908        2.63480
H         -6.12394       -1.18932        1.50635
C         -5.13772       -1.44673        3.41231
H         -5.96928       -2.02825        3.84308
H         -4.75442       -0.80381        4.22574
C         -4.02287       -2.37393        2.94265
H         -4.43637       -3.09808        2.21660
H         -3.63422       -2.96969        3.78455
C         -2.88271       -1.60871        2.27828
H         -2.37753       -0.97349        3.02666
H         -2.11701       -2.30256        1.90592
H         -2.90839        2.17351        0.76614
C         -0.99913        2.60593       -0.13254
H         -1.40763        2.67583       -1.15319
H         -0.02832        2.09643       -0.23472
C         -0.78792        4.00533        0.43420
H         -0.10882        4.57552       -0.22162
H         -1.75041        4.54871        0.43014
C         -0.24581        3.95815        1.85723
H         -0.14255        4.97691        2.26436
H          0.77261        3.52877        1.84894
C         -1.14336        3.11430        2.75344
H         -2.12258        3.61615        2.85720
H         -0.72062        3.04725        3.76895
C         -1.35912        1.71293        2.19044
H         -0.41420        1.14420        2.20527
H         -2.04863        1.15653        2.84168
H          1.40984        1.39655        1.32717
H          1.98277       -0.06801        2.08675
C          3.51872        1.37706        1.64726
C          3.77068        2.65040        1.12215
H          3.02043        3.11555        0.47686
C          4.46211        0.80146        2.52632
C          4.21781       -0.53251        3.17221
H          4.04423       -1.32978        2.43325
H          3.32677       -0.51326        3.82021
H          5.07455       -0.83072        3.79155
C          4.94863        3.33663        1.40361
H          5.12127        4.32600        0.97357
C          5.64055        1.50381        2.80010
H          6.37488        1.05518        3.47486
C          5.89563        2.75417        2.24138
H          6.82642        3.27708        2.47318
H          3.09625       -2.11077        0.38911
C          4.78731       -1.03854       -0.37423
H          4.96541       -0.38115        0.48495
H          5.07794       -0.46524       -1.26593
C          5.67707       -2.27707       -0.29173
H          6.73292       -1.97410       -0.20022
H          5.43469       -2.84047        0.62796
C          5.48511       -3.17814       -1.50652
H          6.10304       -4.08663       -1.41789
H          5.84421       -2.64515       -2.40590
C          4.01843       -3.54830       -1.69817
H          3.69453       -4.19946       -0.86633
H          3.88719       -4.13653       -2.62133
C          3.11622       -2.31861       -1.72804
H          3.34026       -1.71520       -2.62696
H          2.06030       -2.61672       -1.79536
H          1.72677        2.00124       -1.03411
C          1.18799        0.92411       -2.78633
H          0.16806        0.69903       -2.44213
H          1.51944        0.04005       -3.36028
C          1.19349        2.15901       -3.68068
H          0.54798        1.99179       -4.55837
H          0.74494        3.00180       -3.12251
C          2.60249        2.54118       -4.11818
H          2.58442        3.46745       -4.71520
H          3.00126        1.75191       -4.78102
C          3.52846        2.69431       -2.91796
H          3.20521        3.56105       -2.31210
H          4.55658        2.91536       -3.24779
C          3.52239        1.44506       -2.04154
H          3.91403        0.59731       -2.62829
H          4.19845        1.58103       -1.18698
