100
Cat636.ts34.5.log	Energy: -1822730.1820798
C          2.07709       -2.86024       -0.17985
H          2.40784       -3.34491       -1.10197
H          2.89028       -2.61625        0.50958
C          0.81148       -3.26083        0.37114
H          0.16052       -3.94433       -0.18154
H          0.73881       -3.38087        1.45896
H          0.11068       -1.88292        0.77756
Ir         0.71804       -1.23943       -0.64408
C          1.29723        0.87212        2.22879
O          3.39055        0.38860        0.76062
O          1.53045        1.90206       -0.27067
C         -1.47560        1.06334       -2.17920
O         -2.60200       -1.14670       -1.21945
O         -1.68898        0.56236        0.52539
P         -1.26507       -0.20990       -0.88212
P          1.73575        0.42751        0.49896
C          1.13430       -1.25942       -2.50427
O          1.41760       -1.22776       -3.62393
H          0.36235        1.44503        2.15758
H          2.08308        1.52942        2.63101
C          1.09733       -0.36603        3.04828
C          2.18527       -1.16789        3.41629
H          3.19469       -0.85590        3.13789
C         -0.19289       -0.78331        3.39402
H         -1.04834       -0.17324        3.09438
C          1.98702       -2.35588        4.11681
H          2.84629       -2.97130        4.39424
C         -0.39104       -1.96546        4.10428
H         -1.40442       -2.26871        4.37659
C          0.69764       -2.75899        4.46460
H          0.54248       -3.68786        5.01879
C          4.26548       -0.08535       -0.18070
C          4.11492        0.21291       -1.53297
H          3.28020        0.83925       -1.85395
C          5.33137       -0.87018        0.26168
H          5.42790       -1.08683        1.32712
C          5.01515       -0.29677       -2.47677
C          4.81178        0.00095       -3.93353
H          3.83533       -0.37864       -4.27290
H          4.82092        1.08617       -4.12230
H          5.59486       -0.45824       -4.55261
C          6.23736       -1.36232       -0.67101
H          7.07506       -1.97879       -0.33595
C          6.07818       -1.08657       -2.02975
H          6.79010       -1.49011       -2.75412
C          1.78560        3.12472        0.29207
C          3.08483        3.52363        0.59878
H          3.91041        2.83670        0.40475
C          0.70476        3.97862        0.52001
H         -0.30056        3.63661        0.26817
C          3.32370        4.78839        1.15063
C          4.72799        5.21318        1.46881
H          5.23474        4.47042        2.10408
H          5.32747        5.31258        0.54966
H          4.74901        6.18002        1.99038
C          0.93907        5.23703        1.06391
H          0.09952        5.91243        1.24572
C          2.23664        5.63832        1.38090
H          2.41005        6.62789        1.81113
H         -1.23073        0.52861       -3.11157
H         -0.64573        1.76141       -1.98603
C         -2.79512        1.76777       -2.26387
C         -2.95137        3.04633       -1.71811
H         -2.09162        3.54436       -1.26322
C         -3.90299        1.14899       -2.85495
H         -3.79378        0.14913       -3.28018
C         -4.18987        3.68184       -1.73314
H         -4.29565        4.67315       -1.28706
C         -5.13973        1.78804       -2.88194
H         -5.99476        1.29256       -3.34876
C         -5.28939        3.05335       -2.31456
H         -6.26201        3.55098       -2.32900
C         -2.66223       -2.44497       -0.77606
C         -2.74159       -2.72410        0.58676
H         -2.74684       -1.89753        1.30102
C         -2.63731       -3.47004       -1.71787
H         -2.55771       -3.21869       -2.77638
C         -2.79497       -4.04862        1.03442
C         -2.82764       -4.35531        2.50302
H         -3.39090       -3.59349        3.06156
H         -3.28455       -5.33545        2.70017
H         -1.80570       -4.37485        2.91655
C         -2.70138       -4.78859       -1.27701
H         -2.68459       -5.60297       -2.00517
C         -2.77818       -5.07648        0.08482
H         -2.82380       -6.11644        0.41818
C         -2.82268        1.23362        0.90970
C         -4.10886        0.81025        0.58245
H         -4.24316       -0.06586       -0.05058
C         -2.63036        2.35507        1.72023
H         -1.61566        2.66042        1.98040
C         -5.22289        1.52989        1.02901
C         -6.59945        1.08492        0.63185
H         -6.75416        1.23794       -0.44827
H         -6.74634        0.01260        0.83199
H         -7.37713        1.64475        1.16971
C         -3.73714        3.06493        2.17216
H         -3.59092        3.94468        2.80358
C         -5.02548        2.66258        1.82472
H         -5.88946        3.23004        2.17925
