100
Cat605.ts34.5.log	Energy: -2070579.5536253
C          2.89452        1.96602       -2.20893
H          3.18852        3.00679       -2.04755
H          3.74574        1.29169       -2.34766
C          1.71684        1.73527       -3.01145
H          1.11191        2.58708       -3.33451
H          1.75992        0.94920       -3.77566
H          0.92642        0.60909       -2.23524
Ir         1.35835        1.38713       -0.80936
O          2.43733       -1.95980       -0.74868
C          4.32030       -0.32288        0.04934
C          2.06059       -0.96569        1.73136
O         -0.88021        0.13020        1.33519
C         -1.76864        2.50975        0.35091
C         -1.85513        0.10676       -1.26365
P         -0.77880        1.03408       -0.09915
P          2.49254       -0.43509        0.02983
C          1.51235        2.94399        0.25696
O          1.57570        3.87669        0.93808
C          1.29357       -2.45416       -1.27306
C          0.93527       -2.16369       -2.59396
H          1.58911       -1.52131       -3.18501
C          0.47981       -3.30055       -0.51308
H          0.77543       -3.53758        0.51062
C         -0.22274       -2.70211       -3.14703
H         -0.50456       -2.47950       -4.17747
C         -0.67680       -3.84822       -1.06211
H         -1.30759       -4.52162       -0.47899
C         -1.02931       -3.53702       -2.37447
Cl        -2.47829       -4.20840       -3.05154
H          4.55213        0.64920        0.51633
H          4.59983       -0.22122       -1.01081
C          5.07754       -1.46383        0.71039
H          4.82213       -1.49777        1.78273
H          4.73900       -2.42244        0.28036
C          6.60157       -1.36776        0.58519
H          6.90640       -0.37889        0.97742
C          7.26728       -2.43743        1.44370
H          6.96895       -2.35046        2.50025
H          8.36501       -2.36664        1.39654
H          6.98360       -3.44613        1.09969
C          7.07349       -1.46567       -0.86152
H          8.17097       -1.40581       -0.92442
H          6.66605       -0.65961       -1.48994
H          6.76516       -2.42615       -1.30757
H          2.63288       -1.87738        1.96856
H          0.99366       -1.22804        1.68744
C          2.28873        0.12804        2.76400
H          3.34401        0.45242        2.73371
H          1.69148        1.01265        2.48421
C          1.95147       -0.27568        4.20226
H          2.54994       -1.17449        4.44565
C          2.36042        0.83326        5.16514
H          3.43258        1.06943        5.07838
H          2.15996        0.55297        6.21090
H          1.79911        1.75861        4.95363
C          0.47937       -0.62857        4.37897
H          0.26446       -0.91605        5.41980
H          0.16716       -1.46362        3.73469
H         -0.15978        0.23281        4.12753
C         -2.02469       -0.42447        1.81982
C         -2.35716       -1.73468        1.46847
H         -1.68957       -2.28889        0.80841
C         -2.85521        0.29364        2.68387
H         -2.56764        1.30151        2.98724
C         -3.54424       -2.30200        1.91789
H         -3.82375       -3.31530        1.62482
C         -4.04393       -0.26988        3.13874
H         -4.70776        0.28880        3.80037
C         -4.39330       -1.55884        2.73732
Cl        -5.89688       -2.24382        3.25899
H         -1.24500        2.97364        1.20400
H         -2.75635        2.17961        0.70639
C         -1.88954        3.50275       -0.79735
H         -0.87905        3.70576       -1.19022
H         -2.45341        3.04609       -1.63164
C         -2.55769        4.82588       -0.41716
H         -1.97241        5.25860        0.41588
C         -2.49554        5.80001       -1.58767
H         -1.45783        5.96878       -1.91441
H         -2.92898        6.77646       -1.32166
H         -3.05921        5.41057       -2.45215
C         -3.99352        4.63704        0.06001
H         -4.45851        5.60275        0.31158
H         -4.05503        4.00043        0.95563
H         -4.60825        4.16716       -0.72666
H         -1.48464       -0.93168       -1.22815
H         -1.55811        0.47990       -2.25604
C         -3.36929        0.16076       -1.08173
H         -3.63590        0.09158       -0.01753
H         -3.75112        1.13910       -1.42369
C         -4.10936       -0.95360       -1.82522
H         -3.66543       -1.91326       -1.50152
C         -5.58098       -0.96771       -1.43097
H         -5.70267       -1.10685       -0.34491
H         -6.12235       -1.78151       -1.93769
H         -6.07323       -0.01942       -1.70518
C         -3.93665       -0.85161       -3.33564
H         -4.45655       -1.67345       -3.85012
H         -2.87797       -0.90301       -3.63181
H         -4.34882        0.09947       -3.71380
