92
Cat685.ts34.5.log	Energy: -1631566.2072889
C         -0.42091       -3.70205       -1.25100
H         -0.07153       -4.61949       -0.76961
H         -1.51276       -3.63248       -1.31024
C          0.34696       -3.20711       -2.36607
H          1.29920       -3.68114       -2.61729
H         -0.19073       -2.84845       -3.25082
H          0.42542       -1.60814       -2.10349
Ir         0.65384       -1.98217       -0.49292
C         -2.43864       -1.89517        1.22218
O         -0.86998        0.31838        1.29173
O         -2.22721       -0.18152       -0.85577
C          2.21148        0.80731        1.06459
O          3.70812       -0.79663       -0.55858
O          2.14421        0.83821       -1.62274
P          2.14943       -0.28794       -0.39046
P         -1.21877       -0.94127        0.24439
C          1.62959       -3.00214        0.79125
O          2.22007       -3.60434        1.57826
H         -3.26829       -1.22758        1.50939
H         -2.86906       -2.64818        0.54113
C         -1.80931       -2.56696        2.43503
H         -1.31216       -1.80465        3.05919
H         -1.00329       -3.23651        2.09429
C         -2.82193       -3.33929        3.26511
H         -3.61688       -2.67914        3.64844
H         -3.30938       -4.12628        2.66787
H         -2.34365       -3.82419        4.12947
C         -1.72734        1.31335        1.66849
C         -2.58909        1.15447        2.75317
H         -2.58918        0.21658        3.31088
C         -1.69991        2.52202        0.97247
H         -1.02187        2.63085        0.12610
C         -3.44081        2.19707        3.11417
H         -4.12050        2.06022        3.95974
C         -2.55101        3.55523        1.34928
H         -2.52389        4.49463        0.78971
C         -3.44348        3.41253        2.42064
C         -4.34431        4.54134        2.83075
H         -5.21048        4.17934        3.40285
H         -4.71919        5.09523        1.95727
H         -3.80840        5.26457        3.46802
C         -3.58756       -0.27573       -0.96261
C         -4.42130        0.68036       -0.38318
H         -3.98467        1.49772        0.19134
C         -4.14274       -1.31957       -1.70551
H         -3.47755       -2.05430       -2.16545
C         -5.80121        0.57613       -0.54338
H         -6.44458        1.32907       -0.07940
C         -5.52306       -1.41063       -1.85317
H         -5.94440       -2.23652       -2.43329
C         -6.38057       -0.46588       -1.27555
C         -7.86749       -0.55301       -1.46449
H         -8.40693       -0.02977       -0.66192
H         -8.21182       -1.59767       -1.48181
H         -8.17427       -0.09383       -2.41934
H          3.08720        1.46983        0.96149
H          1.30710        1.43217        0.98801
C          2.21339        0.06789        2.39543
H          3.12265       -0.55011        2.47854
H          1.36219       -0.63040        2.41092
C          2.11938        1.01918        3.57689
H          2.96352        1.72724        3.59305
H          1.18945        1.60832        3.53122
H          2.12346        0.47204        4.53186
C          4.81008       -0.01108       -0.32438
C          5.61177       -0.30566        0.77773
H          5.33215       -1.13927        1.42505
C          5.15264        1.03638       -1.17888
H          4.51924        1.24785       -2.04040
C          6.74819        0.45708        1.02810
H          7.36933        0.21938        1.89630
C          6.29180        1.79198       -0.91016
H          6.55297        2.61449       -1.58211
C          7.10968        1.52140        0.19265
C          8.35352        2.32084        0.45366
H          8.53958        2.43741        1.53159
H          8.28923        3.32397        0.00807
H          9.24024        1.82670        0.02216
C          1.17492        1.79064       -1.79388
C          1.44020        3.10629       -1.41349
H          2.40157        3.34172       -0.95257
C         -0.04552        1.47342       -2.39137
H         -0.25329        0.44061       -2.66781
C          0.48389        4.09658       -1.63213
H          0.70117        5.12436       -1.32865
C         -0.99327        2.47039       -2.59351
H         -1.95509        2.20114       -3.03796
C         -0.75004        3.79871       -2.22120
C         -1.79256        4.85692       -2.43886
H         -1.49500        5.81493       -1.98939
H         -2.75769        4.55891       -1.99940
H         -1.96835        5.03210       -3.51258
