72
Cat671.ts34.5.log	Energy: -1060496.3286092
C         -1.58060       -0.04236       -2.69237
H         -1.30077       -0.76868       -3.46092
H         -2.65720       -0.01808       -2.49471
C         -0.86881        1.21087       -2.69307
H         -0.04578        1.36400       -3.39674
H         -1.45562        2.12713       -2.54835
H         -0.46866        1.47448       -1.20271
Ir        -0.22155       -0.18870       -1.02648
C         -2.22688        1.37112        1.56986
C         -3.59301       -0.63323        0.03294
C         -1.65978       -1.42036        2.08105
C          2.45580       -1.17737        1.01772
C          3.21920        0.69933       -1.09184
C          1.64287        1.64080        1.34057
P          1.80107        0.27580        0.06724
P         -1.87521       -0.20892        0.66076
C          0.40343       -1.89790       -1.49283
O          0.79027       -2.96256       -1.74715
H         -2.94136        1.19530        2.39267
H         -1.27685        1.67020        2.04064
C         -2.70880        2.49887        0.66848
H         -3.70567        2.25686        0.26265
H         -2.03595        2.56366       -0.20320
C         -2.76175        3.84234        1.37922
H         -3.43490        3.81065        2.25101
H         -1.76408        4.13615        1.74362
H         -3.12005        4.63985        0.71044
H         -3.73399        0.11752       -0.76448
C         -3.62818       -2.01045       -0.62008
H         -4.53921       -2.12271       -1.22952
H         -2.75471       -2.17038       -1.26905
H         -3.64511       -2.80928        0.13769
C         -4.72745       -0.46789        1.03660
H         -4.80374        0.55566        1.43076
H         -5.69100       -0.70493        0.55629
H         -4.62203       -1.15241        1.89349
H         -2.67947       -1.62710        2.45070
C         -1.03769       -2.72650        1.60224
H         -1.01828       -3.46156        2.42349
H         -1.57979       -3.17136        0.75821
H         -0.00698       -2.56014        1.26084
C         -0.85542       -0.83604        3.23743
H         -1.36163        0.00740        3.72699
H         -0.68404       -1.60870        4.00426
H          0.13369       -0.48719        2.90239
H          1.84387       -1.22167        1.93375
H          2.14116       -2.04885        0.42194
C          3.93208       -1.33590        1.36378
H          4.29169       -0.48365        1.96023
H          4.53132       -1.33747        0.43896
C          4.18699       -2.62843        2.12633
H          3.63295       -2.64536        3.07873
H          3.86265       -3.50455        1.54269
H          5.25518       -2.75644        2.35857
H          3.54535       -0.31233       -1.39758
C          2.73214        1.40781       -2.34954
H          3.57064        1.55071       -3.05016
H          1.95030        0.81628       -2.84316
H          2.31133        2.40019       -2.12342
C          4.41498        1.43196       -0.48978
H          4.82164        0.94391        0.40393
H          5.22650        1.48568       -1.23381
H          4.15788        2.46797       -0.22374
H          0.70677        1.32089        1.82798
C          2.70264        1.74067        2.43148
H          2.39736        2.50211        3.16820
H          2.82417        0.79454        2.97786
H          3.68524        2.04047        2.04316
C          1.36267        2.98806        0.68587
H          0.57471        2.90320       -0.07697
H          1.02518        3.71541        1.44188
H          2.26004        3.40715        0.20641
