84
Cat601.ts34.5.log	Energy: -3499117.7182949
C          1.37662       -4.26998        0.90740
H          1.33929       -5.07381        0.16778
H          2.37677       -4.07750        1.30599
C          0.24268       -4.12102        1.77644
H         -0.65037       -4.72943        1.61157
H          0.42635       -3.91281        2.83687
H         -0.08429       -2.56241        1.78382
Ir         0.32415       -2.53450        0.15501
O          2.34251       -0.19927        1.78716
O          3.53990       -1.78019        0.29465
O          2.06450        0.10468       -0.72910
O         -1.34672        0.31472        0.49687
O         -1.76522       -0.83557       -1.75074
O         -2.86993       -1.69528        0.40866
P         -1.42265       -1.18019       -0.18053
P          2.05121       -1.10676        0.40495
C          0.20845       -3.23692       -1.61929
O          0.13227       -3.64101       -2.69205
C          1.31157        0.45087        2.41466
C          0.62788       -0.18481        3.45106
H          0.93076       -1.18941        3.75002
C          0.95750        1.74275        2.02852
H          1.48647        2.22969        1.20874
C         -0.42204        0.46530        4.09243
H         -0.96345       -0.01906        4.90691
C         -0.09016        2.39761        2.66679
H         -0.38594        3.40147        2.35955
C         -0.78346        1.74923        3.68579
Cl        -2.11744        2.54985        4.45191
C          4.78626       -1.20695        0.40974
C          5.25608       -0.74258        1.63633
H          4.62576       -0.82794        2.52079
C          5.58324       -1.13138       -0.73113
H          5.19728       -1.51843       -1.67500
C          6.50787       -0.13726        1.70565
H          6.88501        0.24924        2.65378
C          6.83109       -0.52408       -0.66500
H          7.45024       -0.42334       -1.55742
C          7.28134       -0.01396        0.55285
Cl         8.81445        0.78765        0.63043
C          3.12010        0.87694       -1.14939
C          3.41430        0.86067       -2.51192
H          2.80143        0.24776       -3.17543
C          3.87333        1.66181       -0.27444
H          3.64808        1.66260        0.79107
C          4.49214        1.59258       -2.99973
H          4.74221        1.57584       -4.06167
C          4.95884        2.38413       -0.75825
H          5.58048        2.96930       -0.07924
C          5.27119        2.33821       -2.11613
Cl         6.65169        3.19959       -2.70644
C         -1.59128        1.52810       -0.08914
C         -2.67438        2.28869        0.34650
H         -3.32916        1.89852        1.12607
C         -0.72438        2.01399       -1.06779
H          0.12734        1.40539       -1.37569
C         -2.90368        3.54180       -0.21452
H         -3.74834        4.14857        0.11510
C         -0.95658        3.26421       -1.63315
H         -0.29047        3.65679       -2.40296
C         -2.04885        4.02149       -1.20722
Cl        -2.34094        5.57588       -1.91280
C         -3.00551       -0.77337       -2.33633
C         -3.57070        0.46328       -2.64123
H         -3.03236        1.37924       -2.39745
C         -3.66974       -1.95703       -2.65573
H         -3.20005       -2.91397       -2.42242
C         -4.82346        0.51719       -3.24506
H         -5.28145        1.47829       -3.48308
C         -4.92397       -1.90541       -3.25597
H         -5.46002       -2.82247       -3.50471
C         -5.49947       -0.66631       -3.54058
Cl        -7.06654       -0.59849       -4.27367
C         -3.82466       -0.92958        1.03676
C         -5.01658       -0.63105        0.38024
H         -5.18111       -0.99293       -0.63471
C         -3.60463       -0.48813        2.34098
H         -2.66104       -0.72353        2.83464
C         -5.98565        0.13317        1.02436
H         -6.92026        0.37998        0.51860
C         -4.56978        0.27764        2.98683
H         -4.39484        0.65111        3.99606
C         -5.75452        0.59190        2.32067
Cl        -6.94958        1.56309        3.11318
