114
Cat666.ts34.5.log	Energy: -1781879.1111112
C         -0.40691        1.01947       -3.87167
H         -0.03907        0.53796       -4.78205
H         -1.48484        1.21468       -3.89188
C          0.44285        2.02766       -3.27634
H          1.44089        2.19882       -3.69213
H         -0.02416        2.96592       -2.94792
H          0.38900        1.72897       -1.76380
Ir         0.43806        0.08243       -2.13708
C         -1.50252        0.73616        0.75925
C         -3.09021        0.25491       -1.76639
C         -1.80182       -1.99859       -0.34790
C          2.03862       -1.95287        0.14964
C          3.84788       -0.02352       -1.23819
C          2.12119        0.78256        1.00564
P          2.10681       -0.22399       -0.55154
P         -1.51649       -0.20956       -0.85996
C          0.99645       -1.49504       -3.00185
O          1.33966       -2.49905       -3.47357
H         -1.17818        0.00757        1.51659
H         -0.68074        1.44958        0.62662
C         -2.72513        1.45126        1.23753
C         -3.54148        0.88030        2.22094
H         -3.28083       -0.10112        2.62162
C         -3.04239        2.73043        0.73066
C         -2.14315        3.42277       -0.25329
H         -1.86628        2.78114       -1.10300
H         -1.19334        3.71861        0.22084
H         -2.61572        4.33098       -0.65196
C         -4.67520        1.53825        2.68815
H         -5.29650        1.07201        3.45660
C         -4.19423        3.37165        1.20251
H         -4.44855        4.35850        0.80561
C         -5.01103        2.78680        2.16877
H         -5.90292        3.31149        2.51985
H         -3.18163        1.34503       -1.66175
H         -2.81561        0.06458       -2.81395
C         -4.39670       -0.41224       -1.47062
C         -4.74377       -1.59848       -2.13359
H         -4.05885       -2.02613       -2.87126
C         -5.31415        0.14194       -0.57260
H         -5.06882        1.08174       -0.07477
C         -5.96135       -2.22202       -1.87431
H         -6.22265       -3.14448       -2.39855
C         -6.54118       -0.47063       -0.29970
C         -7.48439        0.13597        0.69737
H         -8.51570       -0.21363        0.54566
H         -7.18708       -0.13178        1.72463
H         -7.47400        1.23400        0.64090
C         -6.85292       -1.66613       -0.95833
H         -7.81122       -2.15606       -0.76431
H         -2.41635       -2.43507       -1.14872
H         -0.80938       -2.46106       -0.42941
C         -2.39459       -2.27829        1.00066
C         -1.56528       -2.37361        2.12627
H         -0.48141       -2.28627        2.01128
C         -3.77325       -2.44724        1.18143
H         -4.43357       -2.39551        0.31515
C         -2.10352       -2.59820        3.39205
H         -1.44189       -2.66835        4.25893
C         -4.33062       -2.67883        2.44169
C         -5.81286       -2.85017        2.60664
H         -6.23057       -2.06952        3.26276
H         -6.32956       -2.79060        1.63939
H         -6.05406       -3.82083        3.06815
C         -3.47823       -2.74260        3.55182
H         -3.89641       -2.91885        4.54687
H          1.13177       -1.92367        0.77286
H          1.78538       -2.58154       -0.71338
C          3.18582       -2.52582        0.91989
C          3.36763       -2.18402        2.26617
H          2.65725       -1.50369        2.74195
C          4.08129       -3.43339        0.31360
C          3.89665       -3.90087       -1.10254
H          3.81962       -3.07425       -1.82436
H          2.97023       -4.48785       -1.21323
H          4.73324       -4.54021       -1.41493
C          4.42665       -2.69390        3.00956
H          4.54608       -2.41028        4.05776
C          5.14430       -3.93407        1.07572
H          5.84159       -4.63459        0.60828
C          5.32667       -3.57005        2.40724
H          6.16592       -3.97801        2.97528
H          4.12819       -1.02560       -1.59675
H          3.70246        0.59144       -2.13723
C          4.92007        0.56619       -0.36735
C          5.22018        1.93208       -0.45750
H          4.69977        2.55469       -1.18761
C          5.64536       -0.21034        0.54397
H          5.44987       -1.28181        0.60658
C          6.19024        2.50186        0.36104
H          6.41118        3.56869        0.27759
C          6.62729        0.34480        1.37222
C          7.37020       -0.51594        2.35226
H          6.75849       -0.70570        3.24959
H          7.60977       -1.49877        1.92096
H          8.30592       -0.04017        2.67889
C          6.88593        1.71604        1.27585
H          7.65035        2.16788        1.91396
H          1.42314        0.27649        1.68987
H          3.12854        0.68031        1.44708
C          1.74652        2.23545        0.91909
C          2.03906        3.03100       -0.19347
H          2.51703        2.58987       -1.06776
C          1.08972        2.83065        2.00255
H          0.83565        2.21389        2.87038
C          1.70637        4.38345       -0.20084
H          1.94788        4.99445       -1.07404
C          0.73025        4.18171        2.00824
C         -0.04356        4.76044        3.15668
H         -1.12198        4.56029        3.03621
H          0.26291        4.31758        4.11557
H          0.08559        5.85009        3.22369
C          1.06101        4.95780        0.89133
H          0.79526        6.01821        0.87319
