114
Cat661.ts34.5.log	Energy: -1781881.7897735
C         -0.60285       -3.24620       -0.08440
H         -1.45879       -3.69384       -0.59388
H          0.36288       -3.69329       -0.34132
C         -0.80096       -2.76119        1.24132
H         -1.79767       -2.83679        1.68656
H          0.01400       -2.89176        1.96396
H         -0.54795       -1.25049        1.34675
Ir        -0.70327       -1.07192       -0.34197
C          2.00056        0.76419        1.09656
C          2.79009       -1.86559       -0.00975
C          2.10261        0.34377       -1.88378
C         -2.62081        1.74088       -1.18493
C         -4.22281       -0.34779        0.04973
C         -2.62307        1.22700        1.70082
P         -2.47495        0.35042        0.06267
P          1.56450       -0.45125       -0.26465
C         -0.98352       -0.94897       -2.17466
O         -1.13534       -0.78659       -3.31542
H          1.87340        1.75913        0.65188
H          1.17836        0.64757        1.81152
C          3.32852        0.67561        1.77726
C          4.38548        1.49375        1.36216
H          4.21489        2.20645        0.55405
C          3.53435       -0.21888        2.85158
C          2.40760       -1.04117        3.41071
H          1.65076       -0.39438        3.88033
H          2.77067       -1.74704        4.17028
H          1.87731       -1.61931        2.63893
C          5.64267        1.40972        1.95281
H          6.45065        2.05625        1.60231
C          4.80752       -0.29906        3.42752
H          4.97077       -0.99946        4.25145
C          5.86081        0.49725        2.98261
H          6.84484        0.41202        3.44977
H          3.12745       -1.79225        1.03066
H          2.18056       -2.77693       -0.09029
C          3.98853       -1.94916       -0.90013
C          5.22312       -1.46471       -0.45249
H          5.29317       -1.03930        0.55113
C          3.89235       -2.51211       -2.19114
C          2.60699       -3.12132       -2.67733
H          1.72802       -2.48963       -2.47511
H          2.41746       -4.08519       -2.17483
H          2.64350       -3.31569       -3.75802
C          6.35088       -1.50308       -1.26768
H          7.30247       -1.11516       -0.89672
C          5.03226       -2.52861       -3.00255
H          4.95851       -2.95350       -4.00756
C          6.25300       -2.02658       -2.55502
H          7.12686       -2.05310       -3.21037
H          2.63116       -0.44061       -2.44065
H          1.16466        0.53928       -2.41877
C          2.95180        1.57438       -1.83564
C          4.33294        1.48521       -2.03989
H          4.77710        0.50778       -2.23695
C          2.36749        2.83915       -1.61026
C          0.87709        2.98673       -1.50778
H          0.42631        2.24469       -0.83130
H          0.40280        2.83605       -2.49262
H          0.59918        3.98960       -1.15439
C          5.14507        2.61437       -1.98092
H          6.22188        2.51771       -2.13808
C          3.19901        3.96182       -1.53665
H          2.74949        4.94128       -1.35025
C          4.57805        3.85799       -1.71157
H          5.20460        4.75103       -1.64997
H         -1.86817        2.47591       -0.86893
H         -2.25469        1.32174       -2.13042
C         -3.97067        2.36607       -1.34342
C         -4.39164        3.36937       -0.46070
H         -3.69645        3.73688        0.29894
C         -4.84975        1.93857       -2.36332
C         -4.42596        0.93329       -3.39757
H         -4.05828       -0.00792       -2.96158
H         -3.60190        1.32007       -4.01889
H         -5.26031        0.68706       -4.06834
C         -5.66747        3.92178       -0.53914
H         -5.96943        4.70228        0.16309
C         -6.12819        2.50245       -2.42629
H         -6.81086        2.17027       -3.21336
C         -6.54612        3.47674       -1.52250
H         -7.55198        3.89640       -1.59749
H         -4.89778        0.40242        0.49086
H         -4.51073       -0.45343       -1.00270
C         -4.31144       -1.65960        0.76695
C         -4.49811       -1.69014        2.15488
H         -4.65917       -0.75052        2.68997
C         -4.18288       -2.88113        0.06978
C         -4.06402       -2.91796       -1.42580
H         -3.17516       -2.36492       -1.76476
H         -4.94555       -2.46485       -1.90909
H         -3.98197       -3.95174       -1.78852
C         -4.50516       -2.88735        2.86714
H         -4.64831       -2.87862        3.95024
C         -4.19598       -4.07505        0.79865
H         -4.09024       -5.02027        0.25919
C         -4.33965       -4.08907        2.18459
H         -4.33867       -5.03843        2.72515
H         -3.42988        1.96932        1.58648
H         -3.01064        0.45284        2.37318
C         -1.39647        1.85407        2.28963
C         -0.86496        3.02571        1.73713
H         -1.34765        3.46994        0.86405
C         -0.78617        1.31005        3.44075
C         -1.31747        0.06825        4.09947
H         -1.37193       -0.77849        3.39832
H         -2.33531        0.22099        4.49437
H         -0.68033       -0.23188        4.94269
C          0.25774        3.64758        2.27597
H          0.65740        4.55198        1.81139
C          0.32643        1.96197        3.98627
H          0.78953        1.55143        4.88772
C          0.85965        3.11186        3.41050
H          1.74123        3.58478        3.84825
