90
Cat649.ts34.5.log	Energy: -1833646.9085202
C          1.55780       -1.41626       -2.88697
H          1.31513       -1.15726       -3.92133
H          2.62249       -1.34684       -2.64592
C          0.79017       -2.47252       -2.28506
H         -0.04396       -2.91180       -2.84006
H          1.32256       -3.21195       -1.67521
H          0.36268       -1.93306       -0.84770
Ir         0.20009       -0.40733       -1.55134
C          1.68039       -0.02407        1.81901
C          3.54376       -0.39697       -0.39299
C          2.23660        2.10717       -0.03850
C         -2.92989        1.14924       -1.36732
C         -2.84268       -1.35458        0.09349
C         -1.56408        1.02260        1.15319
P         -1.76854        0.04908       -0.39398
P          1.88194        0.29472       -0.03152
C         -0.30653        0.76652       -2.92992
O         -0.59535        1.48007       -3.79630
H          2.11712        0.82966        2.35172
H          0.59954        0.01704        1.99565
C          2.28332       -1.29431        2.33702
C          3.63655       -1.29876        2.69747
H          4.20876       -0.37127        2.60873
C          1.54317       -2.48987        2.44430
C          0.07347       -2.53500        2.14485
H         -0.17180       -2.02184        1.20494
H         -0.50384       -2.04399        2.94512
H         -0.28695       -3.57006        2.06730
C          4.27301       -2.45468        3.13595
H          5.33172       -2.42872        3.40321
C          2.20023       -3.64843        2.87602
H          1.62882       -4.57772        2.95319
C          3.55115       -3.64283        3.21447
H          4.03550       -4.56435        3.54612
C          4.62306        0.38588       -0.81951
H          4.51754        1.46964       -0.89248
C          3.71154       -1.79075       -0.34393
H          2.88195       -2.42785       -0.03020
C          5.84247       -0.19595       -1.16210
H          6.68843        0.40806       -1.49519
C          4.92427       -2.38396       -0.67298
H          5.06251       -3.46508       -0.62076
C          5.98003       -1.57466       -1.07653
F          7.14500       -2.13537       -1.39552
C          1.73533        2.89852       -1.07648
H          1.13465        2.42134       -1.85357
C          3.01831        2.72551        0.94797
H          3.45863        2.13762        1.75637
C          1.97815        4.26915       -1.12603
H          1.58572        4.89002       -1.93344
C          3.26832        4.09394        0.91912
H          3.87157        4.58260        1.68636
C          2.73680        4.85192       -0.11910
F          2.96605        6.16128       -0.14842
H         -2.38378        2.09822       -1.47865
H         -2.97042        0.69809       -2.36681
C         -4.29036        1.36469       -0.78628
C         -4.47165        2.31634        0.22579
H         -3.62179        2.92713        0.53830
C         -5.39002        0.58513       -1.20584
C         -5.25672       -0.44056       -2.29366
H         -4.53710       -1.22860       -2.02120
H         -4.90355        0.00836       -3.23597
H         -6.22201       -0.92408       -2.49551
C         -5.70487        2.48541        0.84842
H         -5.81931        3.22919        1.64032
C         -6.62445        0.77592       -0.57566
H         -7.47730        0.17183       -0.89704
C         -6.78745        1.70498        0.44878
H         -7.76274        1.82626        0.92622
C         -3.98108       -1.20040        0.90218
H         -4.23757       -0.22608        1.32039
C         -2.56442       -2.61919       -0.43816
H         -1.68712       -2.73456       -1.07796
C         -4.81293       -2.28201        1.17332
H         -5.70389       -2.17194        1.79372
C         -3.38728       -3.71012       -0.17472
H         -3.17872       -4.69942       -0.58565
C         -4.50502       -3.52382        0.62953
F         -5.29994       -4.55825        0.88621
C         -1.83631        0.54723        2.43999
H         -2.28624       -0.43649        2.57785
C         -0.95887        2.28178        1.02308
H         -0.70280        2.66255        0.03218
C         -1.51548        1.30272        3.56736
H         -1.71661        0.93551        4.57529
C         -0.63650        3.04961        2.13491
H         -0.15137        4.02216        2.03433
C         -0.91888        2.54500        3.40054
F         -0.60404        3.26648        4.47255
