60
Cat614.ts34.5.log	Energy: -1243185.4276113
C         -3.92407        0.71028       -0.21257
H         -4.63942        0.29803        0.50393
H         -3.87517        1.80323       -0.21391
C         -3.76190        0.00749       -1.45857
H         -4.27219       -0.94858       -1.60519
H         -3.70158        0.59479       -2.38167
H         -2.18354       -0.08100       -1.69425
Ir        -2.01689       -0.28254       -0.02858
C          0.25222        2.22195       -1.22879
O         -1.57379        2.94048        0.74285
O          0.39100        1.37801        1.38769
C          0.78154       -1.94598        1.18365
O         -0.36811       -3.17023       -0.85211
O          0.84198       -0.97355       -1.41164
P         -0.21399       -1.61765       -0.32159
P         -0.75892        1.60655        0.21954
C         -2.49927       -1.14863        1.59337
O         -2.77271       -1.64646        2.59877
H         -0.37973        2.93469       -1.78193
H          0.32636        1.30996       -1.83916
C          1.62183        2.75780       -0.95383
C          2.64663        1.86163       -0.61544
H          2.42154        0.79386       -0.59139
C          1.92161        4.12436       -1.00131
H          1.14428        4.83739       -1.28862
C          3.92113        2.32233       -0.30106
H          4.70357        1.60616       -0.03634
C          3.19965        4.58743       -0.69006
H          3.41365        5.65825       -0.73399
C          4.20236        3.68909       -0.32866
H          5.20276        4.05178       -0.08119
C         -1.23198        4.28743        0.52572
H         -0.20450        4.52377        0.84367
H         -1.34219        4.56811       -0.53566
H         -1.93173        4.89855        1.11367
C          0.91690        2.39085        2.21607
H          1.52015        3.11994        1.65090
H          0.11185        2.91440        2.75587
H          1.56835        1.89895        2.95202
H          0.18810       -2.67322        1.76058
H          0.75288       -0.98694        1.72174
C          2.18857       -2.40031        0.95947
C          3.24463       -1.49113        1.09889
H          3.02718       -0.46963        1.42180
C          2.47845       -3.70997        0.55675
H          1.65909       -4.42245        0.43693
C          4.55585       -1.87256        0.82100
H          5.36776       -1.14955        0.93459
C          3.78861       -4.09257        0.28036
H          3.99839       -5.11718       -0.03674
C          4.83181       -3.17426        0.40422
H          5.85879       -3.47585        0.18503
C         -1.36725       -3.49433       -1.79560
H         -2.28758       -2.91835       -1.59622
H         -1.02705       -3.28380       -2.82375
H         -1.57794       -4.56853       -1.70218
C          1.83522       -1.69572       -2.11823
H          2.81846       -1.57989       -1.63815
H          1.59269       -2.76691       -2.16788
H          1.87867       -1.28468       -3.13761
