100
Cat627.ts34.5.log	Energy: -1822709.7144529
C         -0.83638       -3.52072       -2.53420
H         -0.72605       -4.55178       -2.18679
H         -1.85088       -3.28618       -2.87695
C          0.26678       -2.95522       -3.27547
H          1.20443       -3.51187       -3.35706
H          0.04087       -2.38418       -4.18322
H          0.39702       -1.47142       -2.69157
Ir         0.11034       -2.14102       -1.17902
C         -3.39706       -1.52105       -0.90291
O         -1.60640       -0.53312        1.01068
O         -1.79761        0.68841       -1.25513
C          1.58129       -0.27004        1.42761
O          3.22890       -1.21387       -0.64262
O          1.64747        0.75044       -1.15084
P          1.67740       -0.71027       -0.37414
P         -1.67756       -0.85832       -0.62511
C          0.49792       -3.46573        0.12894
O          0.71294       -4.23902        0.95980
H         -3.22592       -2.36766       -1.58507
H         -3.98915       -0.77406       -1.45088
C         -4.12587       -1.98124        0.32250
C         -5.34420       -1.39821        0.68648
H         -5.76548       -0.60558        0.06250
C         -3.59743       -2.99681        1.13102
H         -2.64373       -3.45840        0.86113
C         -6.01790       -1.81088        1.83486
H         -6.96869       -1.34388        2.10302
C         -4.26514       -3.40406        2.28253
H         -3.83457       -4.19074        2.90661
C         -5.47737       -2.81127        2.64060
H         -6.00017       -3.13282        3.54445
C         -2.11781        0.52155        1.71677
C         -3.14174        0.30352        2.63654
H         -3.54210       -0.70242        2.76510
C         -1.57840        1.79965        1.56174
H         -0.77648        1.96412        0.84272
C         -3.64225        1.37678        3.37074
H         -4.45245        1.19741        4.08305
C         -2.09233        2.85895        2.30075
H         -1.66843        3.85682        2.15595
C         -3.13721        2.67269        3.21448
C         -3.67025        3.82053        4.02221
H         -3.73675        4.73961        3.42084
H         -3.01368        4.04115        4.88054
H         -4.67061        3.60186        4.42240
C         -2.87842        1.43985       -1.61869
C         -3.94734        1.71577       -0.76510
H         -3.96539        1.30868        0.24629
C         -2.86524        1.98455       -2.90582
H         -2.02232        1.75454       -3.56073
C         -4.98999        2.52745       -1.20985
H         -5.82020        2.73496       -0.52901
C         -3.90927        2.79879       -3.32889
H         -3.88252        3.21764       -4.33894
C         -4.99480        3.08694       -2.49073
C         -6.11079        3.97779       -2.95410
H         -6.49456        3.66394       -3.93723
H         -5.77123        5.02141       -3.05835
H         -6.95094        3.97163       -2.24559
H          0.69271       -0.82755        1.76048
H          1.32248        0.79683        1.49813
C          2.77068       -0.58534        2.28252
C          3.51154        0.43852        2.88285
H          3.21126        1.47758        2.72710
C          3.15667       -1.91362        2.50739
H          2.58348       -2.72936        2.06053
C          4.62359        0.14803        3.67089
H          5.19016        0.96204        4.12957
C          4.26936       -2.20509        3.29218
H          4.55840       -3.24651        3.45214
C          5.01148       -1.17529        3.87249
H          5.88507       -1.40585        4.48680
C          4.33529       -0.42411       -0.83346
C          5.33971       -0.39568        0.13052
H          5.23260       -0.99269        1.03616
C          4.47086        0.31793       -2.00863
H          3.67928        0.27964       -2.75760
C          6.46246        0.40435       -0.07336
H          7.24071        0.42718        0.69446
C          5.59550        1.11425       -2.19204
H          5.68474        1.70428       -3.10848
C          6.60996        1.17990       -1.22783
C          7.82435        2.03532       -1.44607
H          8.40148        2.15906       -0.51879
H          7.55054        3.03641       -1.81283
H          8.49650        1.58827       -2.19719
C          1.75072        2.02546       -0.66747
C          2.85537        2.47287        0.05591
H          3.68570        1.79685        0.26500
C          0.70372        2.90245       -0.95688
H         -0.14945        2.52321       -1.52071
C          2.88966        3.79249        0.50408
H          3.75829        4.13146        1.07553
C          0.75896        4.21705       -0.50672
H         -0.07247        4.89042       -0.73392
C          1.84925        4.68818        0.23692
C          1.90754        6.11427        0.70243
H          2.63069        6.24230        1.52038
H          0.92599        6.46250        1.05777
H          2.21288        6.78720       -0.11621
