66
Cat643.ts34.5.log	Energy: -1292487.9497352
C         -3.05549       -2.14590       -0.99171
H         -3.33559       -3.12919       -0.60490
H         -3.85120       -1.39954       -0.89280
C         -2.22392       -2.10904       -2.16777
H         -1.82379       -3.04275       -2.57211
H         -2.46919       -1.38790       -2.95641
H         -1.12345       -1.00484       -1.83626
Ir        -1.09391       -1.60174       -0.26745
C         -2.50960        1.75637       -0.40689
O         -3.12255        0.07015        1.65374
O         -0.75155        1.11518        1.60667
C          1.92073       -0.61409        1.28529
O          2.14779       -2.60913       -0.41134
O          1.62542       -0.33732       -1.49285
P          1.15421       -1.29755       -0.24739
P         -1.85079        0.35182        0.63998
C         -1.00136       -3.01522        1.00187
O         -0.94408       -3.85289        1.79332
H         -2.94966        1.24211       -1.27867
H         -3.33643        2.26794        0.09979
C         -1.45859        2.74254       -0.83985
C         -0.29387        2.28524       -1.46798
H         -0.15754        1.21687       -1.64539
C         -1.61565        4.12551       -0.60510
C         -2.86172        4.69120        0.01880
H         -3.04182        4.29981        1.03448
H         -3.75893        4.45749       -0.57647
H         -2.79463        5.78463        0.10075
C          0.71951        3.16318       -1.83930
H          1.62434        2.77255       -2.30988
C         -0.58628        4.99361       -0.98838
H         -0.70747        6.06535       -0.80746
C          0.57643        4.52632       -1.59529
H          1.36400        5.22794       -1.88100
C         -4.18215        0.92409        2.00068
H         -3.85337        1.94269        2.26705
H         -4.92755        0.99637        1.19032
H         -4.67641        0.48664        2.88004
C         -1.04927        2.18444        2.47035
H         -1.53751        3.01798        1.93931
H         -1.68603        1.85383        3.30699
H         -0.09685        2.55217        2.87791
H          1.07347       -0.13547        1.79571
H          2.22531       -1.49067        1.87437
C          3.02133        0.37955        1.07430
C          2.66719        1.70783        0.80842
H          1.60776        1.97550        0.79502
C          4.38040        0.00801        1.07541
C          4.79752       -1.40691        1.35528
H          4.27402       -2.11868        0.69877
H          4.55585       -1.69619        2.39187
H          5.88040       -1.53434        1.21956
C          3.63343        2.66853        0.52530
H          3.33033        3.69511        0.30561
C          5.33941        0.98877        0.79913
H          6.39616        0.70678        0.79761
C          4.97893        2.30565        0.51881
H          5.75114        3.04689        0.29864
C          1.83712       -3.60582       -1.36194
H          0.74637       -3.77165       -1.40474
H          2.19658       -3.32303       -2.36599
H          2.33829       -4.53231       -1.04976
C          2.95136       -0.22535       -1.97504
H          3.40749        0.71492       -1.63225
H          3.57778       -1.06639       -1.64282
H          2.90495       -0.22994       -3.07467
