88
Cat630.ts34.5.log	Energy: -2877390.2986630
C         -0.67080       -3.93518       -2.40886
H         -0.53432       -4.94528       -2.01290
H         -1.68749       -3.74558       -2.77174
C          0.42365       -3.36980       -3.16058
H          1.37962       -3.89871       -3.20409
H          0.19351       -2.84417       -4.09416
H          0.50345       -1.85653       -2.63981
Ir         0.21463       -2.46705       -1.10322
C         -3.31741       -1.96166       -0.86199
O         -1.56703       -0.82609        1.00473
O         -1.79141        0.28684       -1.31146
C          1.60947       -0.47305        1.45232
O          3.29510       -1.37853       -0.60648
O          1.62032        0.48605       -1.15691
P          1.71818       -0.95327       -0.33843
P         -1.62123       -1.23106       -0.61657
C          0.62283       -3.72920        0.26169
O          0.84915       -4.46405        1.12248
H         -3.11510       -2.84484       -1.48699
H         -3.92681       -1.27097       -1.46262
C         -4.04229       -2.36424        0.38648
C         -5.27674       -1.79154        0.71031
H         -5.71860       -1.05259        0.03670
C         -3.49268       -3.31647        1.25572
H         -2.52754       -3.77129        1.01662
C         -5.94491       -2.15083        1.87989
H         -6.90892       -1.69382        2.11567
C         -4.15534       -3.67070        2.42753
H         -3.70939       -4.40884        3.09824
C         -5.38309       -3.08700        2.74595
H         -5.90220       -3.36699        3.66551
C         -2.10538        0.24176        1.66367
C         -3.11802        0.03254        2.60058
H         -3.48596       -0.97849        2.77743
C         -1.60168        1.52636        1.44931
H         -0.80687        1.68014        0.72069
C         -3.64966        1.11502        3.29602
H         -4.44613        0.96440        4.02639
C         -2.13280        2.60964        2.14058
H         -1.74850        3.61650        1.96836
C         -3.16336        2.40034        3.05620
Cl        -3.83910        3.74672        3.91183
C         -2.89118        0.99081       -1.70224
C         -3.97169        1.26093       -0.85792
H         -3.98259        0.88151        0.16406
C         -2.88545        1.49792       -3.00474
H         -2.03425        1.27304       -3.65037
C         -5.03695        2.03070       -1.31741
H         -5.88032        2.24863       -0.66027
C         -3.94468        2.27355       -3.46315
H         -3.94320        2.67409       -4.47809
C         -5.02085        2.53659       -2.61585
Cl        -6.34490        3.49869       -3.18095
H          0.74531       -1.05864        1.80099
H          1.30662        0.58332        1.50255
C          2.81286       -0.72241        2.31044
C          3.50284        0.34147        2.90171
H          3.15062        1.36365        2.74286
C          3.26135       -2.02864        2.54832
H          2.72717       -2.87568        2.11155
C          4.62838        0.11243        3.69112
H          5.15402        0.95683        4.14323
C          4.38708       -2.25880        3.33490
H          4.72502       -3.28353        3.50594
C          5.07970       -1.18879        3.90384
H          5.96336       -1.37123        4.51974
C          4.35715       -0.53392       -0.79781
C          5.35728       -0.45367        0.17076
H          5.27947       -1.05635        1.07568
C          4.45691        0.20807       -1.97683
H          3.67372        0.12250       -2.73042
C          6.44186        0.39697       -0.02345
H          7.22596        0.47222        0.73141
C          5.53685        1.06310       -2.16961
H          5.61874        1.65783       -3.08052
C          6.52129        1.16123       -1.18677
Cl         7.86057        2.23582       -1.41809
C          1.65556        1.77786       -0.72202
C          2.70508        2.29320        0.04068
H          3.54968        1.65912        0.31393
C          0.59592        2.60325       -1.10508
H         -0.20757        2.17227       -1.70318
C          2.67391        3.62467        0.44834
H          3.48706        4.03575        1.04864
C          0.56683        3.93456       -0.70491
H         -0.26217        4.58263       -0.99392
C          1.60277        4.43811        0.08234
Cl         1.55563        6.08711        0.60840
