76
Cat679.ts34.5.log	Energy: -2497503.4389149
C          1.00619       -3.28113        0.85043
H          1.03300       -4.09943        0.12492
H          1.95754       -3.12548        1.37072
C         -0.21268       -3.12051        1.60776
H         -1.08763       -3.72822        1.35830
H         -0.12496       -2.95236        2.68845
H         -0.45648       -1.57341        1.61974
Ir         0.05472       -1.54523        0.01310
C          1.67327        1.03023        2.01455
C          3.45781       -0.58215        0.40527
C          1.77856        1.32756       -0.83780
C         -1.64590        0.81436       -1.99903
C         -3.37171       -0.78743       -0.31288
C         -1.78594        1.26177        0.87540
P         -1.68524       -0.06586       -0.38429
P          1.72271        0.03132        0.46797
C          0.10292       -2.13421       -1.77839
O          0.14967       -2.44180       -2.89512
H          2.49180        1.76974        2.03305
H          0.73237        1.60101        1.96492
C          1.68012        0.17727        3.27478
H          2.58915       -0.44809        3.30009
H          0.83138       -0.52496        3.22262
C          1.59085        1.01488        4.54097
H          2.46130        1.68281        4.64149
H          0.69111        1.65057        4.53666
H          1.55316        0.38204        5.44054
C          3.73680       -1.71460       -0.36832
H          2.91003       -2.23075       -0.86329
C          4.51745        0.05836        1.05939
H          4.33918        0.94903        1.66544
C          5.03688       -2.19368       -0.50043
H          5.25039       -3.07490       -1.10745
C          5.82033       -0.41758        0.94986
H          6.64414        0.08004        1.46412
C          6.07343       -1.54240        0.16520
Cl         7.69263       -2.13750        0.02285
C          1.58972        2.68954       -0.58296
H          1.49853        3.05626        0.43990
C          1.90998        0.91139       -2.17154
H          2.04172       -0.14992       -2.39506
C          1.47841        3.60743       -1.62824
H          1.30655        4.66621       -1.42614
C          1.82190        1.81564       -3.22119
H          1.90845        1.48176       -4.25629
C          1.57955        3.16260       -2.94265
Cl         1.38032        4.28558       -4.24639
H         -0.72195        1.41570       -1.97707
H         -1.44905        0.02034       -2.73815
C         -2.84238        1.65251       -2.42476
H         -3.10143        2.37948       -1.63682
H         -3.72557        1.00246       -2.53238
C         -2.57406        2.38658       -3.73108
H         -1.70702        3.06149       -3.64564
H         -2.35354        1.67758       -4.54474
H         -3.44149        2.98935       -4.03945
C         -3.53306       -2.14292       -0.61574
H         -2.64142       -2.73878       -0.83613
C         -4.50214       -0.02326        0.00482
H         -4.39546        1.03419        0.25857
C         -4.79603       -2.72835       -0.61920
H         -4.92449       -3.78550       -0.85707
C         -5.76901       -0.59793        0.01562
H         -6.65142       -0.00791        0.26843
C         -5.90775       -1.94978       -0.30119
Cl        -7.48139       -2.67000       -0.28767
C         -1.47494        2.59783        0.60955
H         -1.25777        2.92426       -0.40793
C         -2.05485        0.88706        2.20036
H         -2.29889       -0.15436        2.42700
C         -1.39966        3.53520        1.64086
H         -1.14015        4.57451        1.43252
C         -1.99386        1.80979        3.23534
H         -2.19664        1.51245        4.26536
C         -1.64790        3.13287        2.94970
Cl        -1.50868        4.27343        4.24361
