68
Cat611.ts34.5.log	Energy: -1153062.6295898
C          1.87570        0.32184       -2.35030
H          1.49730        0.82220       -3.24624
H          2.86683        0.66961       -2.04038
C          1.59669       -1.08748       -2.21730
H          0.94475       -1.57200       -2.95005
H          2.41281       -1.73916       -1.88243
H          1.16742       -1.26664       -0.70939
Ir         0.34031        0.19965       -0.84455
C          2.77795        0.22839        1.91494
C          2.74208        2.53531        0.23006
C          0.60912        2.09903        2.12272
C         -2.63221        0.46938        1.10560
C         -2.42649       -1.97119       -0.50221
C         -0.82359       -1.68565        1.87617
P         -1.38214       -0.73856        0.38793
P          1.60306        1.20932        0.83459
C         -0.84544        1.38648       -1.70087
O         -1.59007        2.13391       -2.18730
H          2.14639       -0.31181        2.63756
H          3.41838        0.92262        2.48248
C          3.60321       -0.73613        1.12252
C          4.79434       -0.33428        0.50477
H          5.15876        0.68569        0.65350
C          3.17427       -2.05635        0.93568
H          2.25400       -2.38911        1.42082
C          5.52390       -1.21705       -0.28936
H          6.44933       -0.88111       -0.76338
C          3.90370       -2.94391        0.14786
H          3.55068       -3.96999        0.01844
C          5.07903       -2.52502       -0.47483
H          5.65049       -3.21812       -1.09647
H          3.46950        2.02728       -0.42246
C          2.02952        3.63570       -0.53750
H          1.33067        4.19563        0.10372
H          1.44744        3.21186       -1.36904
H          3.31255        2.94123        1.08266
H          2.74986        4.35832       -0.95045
H         -0.02665        1.32686        2.58719
C          1.34604        2.90232        3.18188
H          1.94505        3.71179        2.73799
H          2.02364        2.27515        3.78095
H         -0.08313        2.73733        1.55005
H          0.63493        3.37116        3.88009
H         -2.24621        1.46423        0.84519
H         -2.58521        0.37924        2.20163
C         -4.04440        0.31299        0.62658
C         -4.98120       -0.42323        1.36195
H         -4.68854       -0.86287        2.31954
C         -4.44705        0.87596       -0.59213
H         -3.73198        1.45741       -1.17994
C         -6.28142       -0.60078        0.89348
H         -6.99744       -1.17613        1.48558
C         -5.74629        0.69782       -1.06221
H         -6.04020        1.14533       -2.01481
C         -6.66826       -0.04313       -0.32389
H         -7.68698       -0.18136       -0.69368
H         -2.89330       -1.41325       -1.32841
C         -1.61783       -3.14114       -1.03584
H         -1.18478       -3.74847       -0.22500
H         -0.78893       -2.78340       -1.66488
H         -3.24866       -2.30629        0.15011
H         -2.24912       -3.80698       -1.64342
H         -0.27987       -0.95827        2.50139
C         -1.87409       -2.42783        2.68363
H         -2.38517       -3.19512        2.08330
H         -2.64508       -1.74894        3.07872
H         -0.05367       -2.37600        1.49567
H         -1.41670       -2.93623        3.54660
