60
Cat697.ts34.5.log	Energy: -961911.6357107
C         -2.18496       -2.39196       -0.11939
H         -1.92062       -3.44959       -0.03236
H         -3.00587       -2.09923        0.54701
C         -2.16582       -1.81835       -1.44677
H         -1.79549       -2.41925       -2.28224
H         -3.00909       -1.18041       -1.73998
H         -1.45419       -0.42806       -1.27433
Ir        -0.41295       -1.17133       -0.16974
C         -2.78630        1.05801        1.32735
C         -1.53920       -0.76802        3.10699
C         -0.12426        1.52084        2.25553
C          2.76666        0.31588        0.00205
C          2.05215       -0.68294       -2.60955
C          0.88339        1.73540       -1.67332
P          1.31306        0.04773       -1.09817
P         -1.17990        0.17504        1.57372
C          0.79035       -2.53271        0.34106
O          1.56834       -3.32801        0.66935
H         -3.12388        1.50281        2.28045
H         -3.50850        0.26471        1.07130
C         -2.72598        2.10561        0.22582
H         -2.13983        2.97057        0.58188
H         -2.16553        1.68868       -0.63180
C         -4.08489        2.60568       -0.27299
H         -4.67557        2.91725        0.60925
C         -3.90263        3.82443       -1.17049
H         -3.38895        4.64240       -0.64143
H         -4.86914        4.21010       -1.53027
H         -3.29656        3.56859       -2.05594
C         -4.86238        1.51395       -1.00066
H         -5.84670        1.87894       -1.33207
H         -5.03620        0.63072       -0.36780
H         -4.31225        1.17879       -1.89632
H         -2.26853       -1.55724        2.87555
H         -0.61330       -1.25757        3.44126
H         -1.93306       -0.12718        3.91231
H         -0.63126        2.06537        3.06861
H          0.80353        1.07769        2.64600
H          0.14549        2.23310        1.46307
H          3.06499       -0.69382        0.33330
H          2.35120        0.80778        0.89485
C          3.96073        1.07943       -0.54899
H          4.33309        0.57574       -1.45675
H          3.65219        2.09202       -0.86678
C          5.12780        1.21744        0.43510
H          5.40845        0.19703        0.75736
C          6.33488        1.83911       -0.25798
H          6.64400        1.25022       -1.13567
H          7.19802        1.90772        0.42202
H          6.10452        2.86017       -0.60596
C          4.74711        2.01382        1.67845
H          5.60331        2.11043        2.36361
H          3.92878        1.54142        2.24212
H          4.42319        3.03271        1.40577
H          2.48235       -1.66046       -2.34741
H          1.24395       -0.85693       -3.33406
H          2.82445       -0.04531       -3.06716
H          0.51830        2.32978       -0.82407
H          1.73446        2.25024       -2.14360
H          0.06358        1.65135       -2.40098
