116
Cat625.ts34.5.log	Energy: -2109881.6479164
C          1.39226       -3.20429       -0.43427
H          1.21460       -3.74329       -1.37004
H          2.43635       -3.21180       -0.10501
C          0.35738       -3.30410        0.57210
H         -0.58856       -3.79574        0.31860
H          0.67959       -3.54426        1.59372
H          0.21117       -1.93981        1.10786
Ir         0.38643       -1.31295       -0.46259
C          2.74166       -0.00532        1.94824
C          3.56035        0.57658       -0.71280
C          1.35376        1.98743        0.21714
C         -2.15729        0.79939       -1.59441
C         -3.12776       -1.48565       -0.12511
C         -1.83439        0.70123        1.38955
P         -1.70618       -0.28223       -0.16986
P          1.99369        0.24613        0.25293
C          0.37389       -1.12947       -2.32110
O          0.41171       -0.99183       -3.47760
H          1.90410        0.04978        2.65231
H          3.43750        0.81475        2.16730
C          3.40507       -1.34627        2.03263
C          4.64196       -1.59870        1.42281
H          5.14950       -0.79294        0.88917
C          2.78931       -2.39287        2.72855
H          1.83290       -2.20248        3.22270
C          5.22350       -2.86283        1.48277
H          6.18507       -3.03808        0.99357
C          3.36923       -3.65782        2.79517
H          2.86524       -4.45979        3.34077
C          4.58738       -3.90063        2.16343
H          5.04340       -4.89258        2.20794
C          4.33503        1.72558       -0.44522
O          4.01292        2.43791        0.65568
C          4.44025        3.76396        0.77727
H          3.89948        4.18719        1.63385
H          5.52538        3.83645        0.96879
H          4.18894        4.35149       -0.12187
C          3.96953       -0.23494       -1.79324
O          3.30553       -1.37999       -1.97584
C          3.55695       -2.17562       -3.09478
H          2.84432       -3.00778       -3.04206
H          4.58462       -2.58050       -3.08940
H          3.38670       -1.62395       -4.03529
C          5.03669        0.14115       -2.62328
H          5.32613       -0.48436       -3.46634
C          5.40282        2.10608       -1.26833
H          5.98048        3.00334       -1.04933
C          5.73344        1.31236       -2.35877
H          6.56475        1.60306       -3.00586
C          1.10734        2.80572        1.33247
O          1.25734        2.24275        2.54913
C          1.31398        3.05064        3.68647
H          1.52401        2.38266        4.53209
H          2.12013        3.80266        3.61225
H          0.35764        3.56391        3.87753
C          1.13793        2.55050       -1.05898
O          1.34173        1.72851       -2.10298
C          1.18101        2.19172       -3.41200
H          1.34689        1.32486       -4.06211
H          1.90918        2.98547       -3.65451
H          0.15917        2.57276       -3.58636
C          0.76289        3.89055       -1.21850
H          0.62311        4.31332       -2.21242
C          0.74492        4.15106        1.18301
H          0.58047        4.77788        2.05862
C          0.58830        4.68346       -0.09104
H          0.31228        5.73442       -0.20776
H         -1.88266        0.17215       -2.45398
H         -1.43616        1.62887       -1.56264
C         -3.55598        1.31409       -1.79293
C         -4.51958        1.36727       -0.78001
H         -4.28079        0.99904        0.21893
C         -3.91023        1.78623       -3.06399
H         -3.17342        1.73944       -3.87160
C         -5.78939        1.88556       -1.02916
H         -6.52568        1.91253       -0.22138
C         -5.17631        2.31045       -3.31523
H         -5.42511        2.67418       -4.31560
C         -6.12471        2.36333       -2.29476
H         -7.12111        2.76872       -2.48729
C         -4.08970       -1.63429        0.89770
O         -4.17853       -0.64594        1.81039
C         -5.03534       -0.76486        2.90560
H         -4.85896        0.12178        3.52867
H         -6.09616       -0.78908        2.59924
H         -4.81936       -1.66922        3.50157
C         -3.18836       -2.41573       -1.18837
O         -2.40480       -2.15521       -2.24572
C         -2.15107       -3.14894       -3.19930
H         -1.38104       -2.74224       -3.86562
H         -3.05355       -3.38872       -3.78812
H         -1.76978       -4.07022       -2.72717
C         -4.03380       -3.53140       -1.14844
H         -4.03882       -4.25061       -1.96631
C         -4.94529       -2.74271        0.94132
H         -5.66677       -2.85230        1.74978
C         -4.89368       -3.69265       -0.07104
H         -5.56048       -4.55738       -0.03471
C         -1.66800        0.00679        2.60721
O         -1.51931       -1.32651        2.49984
C         -1.39602       -2.11545        3.64498
H         -1.30643       -3.15242        3.29783
H         -0.49819       -1.85297        4.23210
H         -2.28246       -2.03142        4.29820
C         -2.03594        2.09084        1.46486
O         -2.13859        2.76727        0.30812
C         -2.73812        4.03098        0.28366
H         -2.85324        4.29518       -0.77531
H         -2.10950        4.79228        0.77382
H         -3.73514        4.00978        0.75583
C         -2.13241        2.74401        2.70353
H         -2.31517        3.81712        2.74015
C         -1.72023        0.65561        3.84332
H         -1.59597        0.09929        4.77141
C         -1.97452        2.02316        3.87758
H         -2.04290        2.53535        4.84069
