92
Cat687.ts34.5.log	Energy: -1631561.6719767
C         -1.09801       -3.18593       -2.08712
H         -1.18072       -4.14072       -1.56020
H         -2.03704       -2.85390       -2.54224
C          0.13142       -2.93586       -2.79832
H          0.96427       -3.63682       -2.69770
H          0.06864       -2.50454       -3.80395
H          0.50054       -1.42006       -2.44564
Ir        -0.03095       -1.74043       -0.88633
C         -1.55760        1.13376       -2.38519
O         -3.20386       -0.23682       -0.91991
O         -1.28208        0.94672        0.36704
C          1.59437        0.01590        1.63948
O          3.18021       -0.76404       -0.54045
O          1.45321        1.06936       -0.94586
P          1.61623       -0.37415       -0.14568
P         -1.55325       -0.03084       -0.96865
C         -0.00782       -2.80424        0.68867
O          0.00594       -3.39561        1.68311
H         -0.69649        1.79295       -2.18034
H         -1.24526        0.51569       -3.24381
C         -2.82423        1.90839       -2.72460
H         -3.22528        2.40061       -1.82674
H         -3.60121        1.19366       -3.03574
C         -2.58562        2.93793       -3.81793
H         -1.84622        3.69262       -3.50341
H         -2.20057        2.46745       -4.73707
H         -3.51372        3.46887       -4.07917
C         -3.94357       -0.92862        0.00549
C         -3.58354       -2.19934        0.44746
H         -2.67408       -2.65563        0.05833
C         -5.11520       -0.29840        0.45834
C         -5.50130        1.05279       -0.05810
H         -4.73907        1.80740        0.18960
H         -5.59714        1.04567       -1.15461
H         -6.45769        1.37724        0.37356
C         -4.37594       -2.85205        1.38952
H         -4.08247       -3.84314        1.74289
C         -5.89278       -0.98093        1.39763
H         -6.80607       -0.50404        1.76407
C         -5.53051       -2.24162        1.87228
H         -6.15603       -2.74781        2.61093
C         -2.09027        1.86799        0.97277
C         -2.21329        3.15317        0.43886
H         -1.67023        3.40010       -0.47450
C         -2.70169        1.52162        2.18921
C         -2.50580        0.17401        2.81663
H         -3.45521       -0.38118        2.86544
H         -1.79364       -0.43752        2.24953
H         -2.13061        0.28107        3.84634
C         -3.00488        4.10135        1.07963
H         -3.10469        5.10260        0.65446
C         -3.49260        2.49624        2.81008
H         -3.98774        2.24244        3.75157
C         -3.65860        3.76642        2.26504
H         -4.28619        4.50134        2.77399
H          0.60568        0.50295        1.70903
H          1.44960       -0.96693        2.11872
C          2.65986        0.81896        2.38601
H          3.04682        1.63806        1.76463
H          3.52262        0.17402        2.60559
C          2.09709        1.38678        3.68034
H          1.27127        2.08940        3.48176
H          1.70105        0.58928        4.32956
H          2.86949        1.92769        4.24750
C          4.28320       -0.82169        0.27512
C          5.16106        0.26131        0.30597
H          4.92612        1.15030       -0.28165
C          4.52759       -1.98846        1.01420
C          3.58434       -3.15111        0.95852
H          2.77706       -3.05753        1.70348
H          3.09553       -3.22629       -0.02317
H          4.11022       -4.09224        1.17148
C          6.29644        0.20850        1.10754
H          6.97808        1.06146        1.13862
C          5.67797       -2.01272        1.81193
H          5.88842       -2.91149        2.39821
C          6.55307       -0.93080        1.86929
H          7.44121       -0.98117        2.50314
C          2.09455        2.26150       -0.74174
C          1.63310        3.13037        0.24578
H          0.78475        2.82570        0.86098
C          3.13594        2.62043       -1.61219
C          3.52693        1.71630       -2.74169
H          4.40839        2.10423       -3.26999
H          3.73874        0.69624       -2.39140
H          2.70119        1.63048       -3.46672
C          2.25440        4.36347        0.42626
H          1.89821        5.04045        1.20596
C          3.74419        3.86321       -1.40434
H          4.56361        4.16176       -2.06404
C          3.32238        4.72502       -0.39256
H          3.81907        5.68814       -0.25596
