100
Cat690.ts34.5.log	Energy: -1541420.7466374
C          0.45592       -1.75291       -2.99013
H          0.09040       -1.33801       -3.93354
H          1.48252       -2.12555       -3.05224
C         -0.49547       -2.51045       -2.20893
H         -1.53417       -2.55783       -2.54894
H         -0.16420       -3.46500       -1.77867
H         -0.34825       -2.00872       -0.77878
Ir        -0.09187       -0.43244       -1.38211
C          2.94523       -1.92420        0.11229
C          3.21718        0.34386       -1.66780
C          2.35513        0.70151        1.12022
C         -1.09800        1.90948        1.11298
C         -3.08902        1.22968       -0.91675
C         -2.45250       -0.50149        1.41905
P         -1.67390        0.50267        0.06020
P          2.04886       -0.38592       -0.39273
C         -0.25255        1.05550       -2.51153
O         -0.29103        1.99070       -3.19691
H          3.95289       -1.65004        0.46544
H          2.41375       -2.30150        1.00043
C          3.02307       -3.02439       -0.93424
H          3.49984       -2.64515       -1.85472
H          2.00599       -3.32803       -1.22671
C          3.79587       -4.23542       -0.43310
H          4.82991       -3.96492       -0.16540
H          3.32657       -4.65992        0.46863
H          3.84222       -5.02968       -1.19364
H          3.30607       -0.44459       -2.43130
H          2.64581        1.15307       -2.13985
C          4.55950        0.79949       -1.19380
C          5.58955       -0.13132       -1.00224
H          5.41157       -1.17757       -1.26249
C          4.80852        2.16153       -0.90982
C          3.78322        3.22608       -1.18824
H          2.83075        3.05363       -0.66335
H          3.54069        3.27542       -2.26216
H          4.15407        4.21440       -0.88440
C          6.83000        0.24603       -0.49740
H          7.61198       -0.50290       -0.35279
C          6.06043        2.52367       -0.39850
H          6.25232        3.57650       -0.17388
C          7.06368        1.58195       -0.18074
H          8.02976        1.89558        0.22146
H          2.89190        1.58808        0.76059
H          1.36468        1.03591        1.44399
C          3.11316        0.09135        2.25998
C          4.48847        0.31583        2.38469
H          4.98993        0.95670        1.65576
C          2.46222       -0.73495        3.19920
C          0.98373       -0.98411        3.11002
H          0.66843       -1.24296        2.08593
H          0.41031       -0.08735        3.40149
H          0.67514       -1.80010        3.77814
C          5.22502       -0.27061        3.41059
H          6.29887       -0.08277        3.48313
C          3.21528       -1.31593        4.22371
H          2.71152       -1.95995        4.95016
C          4.58653       -1.09388        4.33418
H          5.15243       -1.56344        5.14236
H         -1.95746        2.31906        1.66792
H         -0.44676        1.44779        1.87392
C         -0.34756        2.99883        0.36438
H         -1.02366        3.48876       -0.35738
H          0.43782        2.52841       -0.25011
C          0.26253        4.04195        1.28705
H         -0.50607        4.54198        1.89796
H          0.98705        3.58431        1.98006
H          0.79297        4.81967        0.71678
H         -2.61116        2.05093       -1.47704
H         -3.30614        0.45882       -1.66559
C         -4.33703        1.70271       -0.23127
C         -4.30945        2.83838        0.59044
H         -3.37648        3.39592        0.69573
C         -5.57189        1.04858       -0.44350
C         -5.70525       -0.10054       -1.39942
H         -5.03319       -0.93251       -1.14653
H         -5.46845        0.21207       -2.42976
H         -6.73148       -0.49101       -1.39684
C         -5.44834        3.29670        1.24802
H         -5.39264        4.18367        1.88345
C         -6.70629        1.52184        0.22559
H         -7.65879        1.00935        0.06555
C         -6.65464        2.62400        1.07491
H         -7.55857        2.96610        1.58438
H         -1.60448       -1.03687        1.87647
H         -2.81103        0.22018        2.16416
C         -3.54587       -1.46910        1.06571
C         -3.31351       -2.47681        0.12281
H         -2.33781       -2.52172       -0.36075
C         -4.80258       -1.40109        1.70424
C         -5.10595       -0.36830        2.75127
H         -4.96967        0.65509        2.36957
H         -4.45517       -0.48412        3.63348
H         -6.14629       -0.45487        3.09226
C         -4.29792       -3.40303       -0.21127
H         -4.08931       -4.17746       -0.95322
C         -5.78176       -2.33781        1.35301
H         -6.75804       -2.28299        1.84242
C         -5.54382       -3.33045        0.40594
H         -6.33014       -4.04612        0.15442
