60
Cat669.ts34.5.log	Energy: -961906.2801370
C          1.79706       -2.44988        0.34691
H          1.61737       -3.35102       -0.24655
H          2.83624       -2.10582        0.30301
C          1.11603       -2.36329        1.61921
H          0.38880       -3.13614        1.88491
H          1.69832       -2.03463        2.48921
H          0.57292       -0.90016        1.69324
Ir         0.23481       -1.00531        0.03729
C          2.23970        1.98455        0.75845
C          3.26587        0.27296       -1.27564
C          0.95003        1.91076       -1.80106
C         -2.64761        0.61720       -1.10182
C         -3.02784       -0.80407        1.37014
C         -1.54211        1.70058        1.41275
P         -1.74464        0.13709        0.43427
P          1.65399        0.77336       -0.51730
C         -0.51014       -1.88390       -1.45423
O         -0.97495       -2.39457       -2.38643
H          2.98365        2.66725        0.31179
H          1.36389        2.59973        1.02815
C          2.80695        1.32362        2.00661
H          3.68651        0.71364        1.73694
H          2.05857        0.61209        2.39473
C          3.19122        2.32123        3.08806
H          3.95857        3.02726        2.73191
H          2.31997        2.91665        3.40615
H          3.59233        1.81568        3.97985
H          3.80480       -0.29262       -0.49823
C          3.10502       -0.57534       -2.52587
H          2.63194       -0.00877       -3.34333
H          2.46970       -1.45006       -2.32161
H          3.86619        1.17664       -1.47523
H          4.08015       -0.93126       -2.89224
H          0.05471        2.35258       -1.33259
C          1.84473        2.99632       -2.37745
H          2.71781        2.57351       -2.89707
H          2.21798        3.68115       -1.60103
H          0.56803        1.24615       -2.59263
H          1.29450        3.60550       -3.11182
H         -1.89749        1.11787       -1.73548
H         -2.84737       -0.34429       -1.60624
C         -3.92043        1.44978       -1.02574
H         -3.68908        2.44618       -0.61478
H         -4.63728        0.98856       -0.32583
C         -4.57872        1.61171       -2.38847
H         -3.89567        2.09565       -3.10474
H         -4.85913        0.63461       -2.81270
H         -5.49025        2.22563       -2.32771
H         -3.32009       -1.62624        0.69645
C         -2.52243       -1.36083        2.69037
H         -2.21314       -0.56190        3.38295
H         -1.64921       -2.00735        2.52222
H         -3.91958       -0.17286        1.51852
H         -3.30154       -1.95292        3.19425
H         -1.14225        2.43980        0.69768
C         -2.73399        2.26552        2.17174
H         -3.08905        1.56822        2.94478
H         -3.58544        2.49232        1.51599
H         -0.71340        1.48666        2.10590
H         -2.45376        3.19993        2.68295
