88
Cat628.ts34.5.log	Energy: -1973076.8309518
C         -0.84158       -3.45448       -2.56868
H         -0.73464       -4.48845       -2.22916
H         -1.85500       -3.21353       -2.90978
C          0.26346       -2.88622       -3.30370
H          1.20014       -3.44406       -3.38776
H          0.04052       -2.30635       -4.20650
H          0.39787       -1.40843       -2.70675
Ir         0.10700       -2.08854       -1.19945
C         -3.39846       -1.48279       -0.90285
O         -1.60160       -0.51270        1.01896
O         -1.80977        0.74546       -1.21606
C          1.59124       -0.25182        1.42465
O          3.23170       -1.19320       -0.65281
O          1.67918        0.79013       -1.14588
P          1.68311       -0.67927       -0.37987
P         -1.68012       -0.81955       -0.62233
C          0.48826       -3.43104        0.09414
O          0.69891       -4.21443        0.91547
H         -3.22469       -2.32833       -1.58555
H         -3.99071       -0.73744       -1.45287
C         -4.13022       -1.94600        0.31995
C         -5.34734       -1.36131        0.68537
H         -5.76783       -0.56610        0.06411
C         -3.60615       -2.96836        1.12273
H         -2.65455       -3.43305        0.85077
C         -6.02374       -1.77819        1.83074
H         -6.97399       -1.31071        2.09966
C         -4.27665       -3.38010        2.27115
H         -3.85037       -4.17276        2.89049
C         -5.48715       -2.78485        2.63137
H         -6.01249       -3.11034        3.53224
C         -2.12695        0.52528        1.73787
C         -3.14771        0.27824        2.65696
H         -3.53302       -0.73512        2.77105
C         -1.59745        1.81098        1.60379
H         -0.79499        1.99168        0.88953
C         -3.66232        1.32565        3.41714
H         -4.46299        1.15834        4.13972
C         -2.11162        2.85972        2.35974
H         -1.71747        3.87284        2.26182
C         -3.14478        2.60559        3.25392
F         -3.64443        3.60769        3.97659
C         -2.89679        1.47614       -1.60052
C         -3.96517        1.76188       -0.74528
H         -3.97273        1.37237        0.27308
C         -2.88915        1.99066       -2.90009
H         -2.04551        1.75401       -3.55125
C         -5.02017        2.55365       -1.19287
H         -5.86201        2.79052       -0.53981
C         -3.93729        2.78941       -3.34674
H         -3.94782        3.20297       -4.35674
C         -4.99453        3.06074       -2.48599
F         -6.00223        3.82161       -2.90971
H          0.70227       -0.81013        1.75523
H          1.33416        0.81497        1.50401
C          2.78260       -0.57574        2.27390
C          3.53201        0.44193        2.87406
H          3.23633        1.48350        2.72617
C          3.16128       -1.90716        2.49258
H          2.58097       -2.71811        2.04604
C          4.64587        0.14234        3.65632
H          5.21845        0.95127        4.11631
C          4.27573       -2.20777        3.27150
H          4.55889       -3.25132        3.42772
C          5.02654       -1.18403        3.85167
H          5.90085       -1.42174        4.46209
C          4.34455       -0.41219       -0.83446
C          5.34877       -0.40702        0.13355
H          5.23152       -1.01236        1.03229
C          4.48960        0.33469       -2.00608
H          3.69931        0.30925       -2.75659
C          6.48819        0.37130       -0.05549
H          7.28527        0.39471        0.68961
C          5.62479        1.11716       -2.19437
H          5.75723        1.71812       -3.09561
C          6.60883        1.13117       -1.21269
F          7.69450        1.88391       -1.38885
C          1.76748        2.05868       -0.64595
C          2.88212        2.51039        0.06344
H          3.72074        1.83868        0.25169
C          0.70434        2.92457       -0.91214
H         -0.15110        2.53870       -1.46791
C          2.92145        3.82490        0.52349
H          3.78129        4.20169        1.08024
C          0.74475        4.23990       -0.45921
H         -0.07557        4.93285       -0.65520
C          1.85320        4.67353        0.25968
F          1.89345        5.92931        0.70143
