102
Cat651.ts34.5.log	Energy: -1683277.3651535
C          1.44566       -2.25200       -2.35772
H          1.12036       -2.35046       -3.39705
H          2.51865       -2.07202       -2.24181
C          0.76539       -3.05633       -1.38358
H         -0.06777       -3.69525       -1.69164
H          1.36151       -3.50734       -0.58140
H          0.28447       -2.09247       -0.16880
Ir         0.13891       -0.87913       -1.32236
C          1.96049        0.21045        1.71208
C          3.54829       -0.01352       -0.72949
C          1.72482        2.15415       -0.40544
C         -2.66052        1.24471       -1.09934
C         -3.05211       -1.37014        0.10516
C         -1.46907        0.60395        1.45775
P         -1.74852       -0.11988       -0.20400
P          1.83542        0.32511       -0.17364
C         -0.50083       -0.21423       -2.96036
O         -0.91363        0.17542       -3.97223
H          2.16101        1.22181        2.08631
H          0.94850       -0.04903        2.04158
C          2.97966       -0.73591        2.26720
C          4.31230       -0.31716        2.36472
H          4.57243        0.69278        2.03647
C          2.64224       -2.04222        2.67796
C          1.22204       -2.52952        2.66232
H          0.72340       -2.32417        1.70353
H          0.62476       -2.02456        3.43884
H          1.17306       -3.61070        2.85227
C          5.31181       -1.16134        2.83549
H          6.34418       -0.80877        2.89098
C          3.66064       -2.88436        3.14031
H          3.40093       -3.89968        3.45327
C          4.98500       -2.46009        3.21670
H          5.75757       -3.14249        3.57925
C          4.07200       -1.30455       -0.55118
H          3.48401       -2.06381       -0.03022
C          4.33327        0.92582       -1.40521
H          3.95191        1.93453       -1.57552
C          5.34415       -1.62848       -1.00431
H          5.73024       -2.63725       -0.83324
C          5.60586        0.59085       -1.86571
H          6.20036        1.34620       -2.38762
C          6.13834       -0.68646       -1.67105
C          7.50387       -1.05205       -2.17438
H          8.06189       -0.16582       -2.50798
H          8.09675       -1.55600       -1.39542
H          7.43843       -1.74577       -3.02881
C          2.42691        3.06588        0.39376
H          3.10040        2.71028        1.17724
C          0.92088        2.66528       -1.42751
H          0.38655        1.96019       -2.06833
C          2.29521        4.43748        0.20001
H          2.85356        5.12586        0.84099
C          0.79439        4.03859       -1.62446
H          0.15712        4.40670       -2.43354
C          1.46640        4.95214       -0.80557
C          1.29321        6.43150       -0.98432
H          1.03470        6.68432       -2.02255
H          0.48037        6.81188       -0.34304
H          2.20624        6.98091       -0.71233
H         -1.98932        2.11563       -1.04940
H         -2.67216        0.92783       -2.14977
C         -4.03388        1.57551       -0.60468
C         -4.19809        2.45423        0.47369
H         -3.31692        2.92351        0.91531
C         -5.17430        0.97991       -1.18612
C         -5.06348        0.04226       -2.35265
H         -4.50293       -0.86704       -2.08595
H         -4.53926        0.50573       -3.20372
H         -6.05820       -0.26771       -2.70041
C         -5.45604        2.72731        1.00300
H         -5.55521        3.41122        1.84922
C         -6.43136        1.27245       -0.64647
H         -7.31485        0.80949       -1.09458
C         -6.58080        2.12700        0.44256
H         -7.57596        2.33094        0.84519
C         -2.99110       -2.58103       -0.58897
H         -2.13682       -2.75341       -1.24997
C         -4.15067       -1.12986        0.94425
H         -4.22752       -0.19116        1.49672
C         -4.00401       -3.52813       -0.45733
H         -3.94007       -4.46674       -1.01479
C         -5.15792       -2.07925        1.06999
H         -6.01224       -1.86728        1.71898
C         -5.10560       -3.29362        0.37170
C         -6.19285       -4.31504        0.53137
H         -7.18883       -3.84779        0.50319
H         -6.14913       -5.07888       -0.25761
H         -6.10651       -4.83306        1.50096
C         -1.58497       -0.17348        2.61577
H         -1.96121       -1.19654        2.54727
C         -0.97030        1.90695        1.58549
H         -0.83757        2.53794        0.70499
C         -1.21239        0.33711        3.85679
H         -1.31256       -0.29233        4.74573
C         -0.60090        2.41156        2.82782
H         -0.20703        3.42970        2.89198
C         -0.70693        1.63541        3.98782
C         -0.25629        2.16151        5.31821
H          0.79937        1.90031        5.50270
H         -0.33621        3.25696        5.36785
H         -0.84586        1.73501        6.14266
