96
Cat638.ts34.5.log	Energy: -1882945.4040288
C          0.30898       -1.12071       -3.51467
H          0.13791       -0.60573       -4.46391
H          1.31418       -1.55314       -3.43437
C         -0.79175       -1.87575       -2.96455
H         -1.76915       -1.83123       -3.45355
H         -0.58485       -2.87227       -2.55379
H         -0.79348       -1.50605       -1.42430
Ir        -0.42738        0.07040       -1.88219
C          2.30518       -1.77976       -0.55246
C          2.89633        0.92964       -1.67172
C          1.62224        0.65709        1.01636
C         -1.78327        2.53646        0.20914
C         -3.75598        0.88309       -1.19284
C         -2.28060       -0.10176        1.21324
P         -2.05196        0.79127       -0.40527
P          1.60404       -0.04560       -0.72499
C         -0.57205        1.68540       -2.84799
O         -0.63979        2.70821       -3.39047
H          1.75317       -2.35753       -1.30917
H          1.96291       -2.13955        0.42917
C          3.77500       -2.01913       -0.70981
C          4.62847       -2.10173        0.39717
H          4.21699       -1.99726        1.40161
C          4.32792       -2.18439       -1.98791
H          3.67385       -2.15544       -2.86463
C          5.99466       -2.31491        0.23110
H          6.63995       -2.37227        1.11101
C          5.69498       -2.39574       -2.15755
H          6.10393       -2.51953       -3.16313
C          6.53643       -2.45491       -1.04652
H          7.60841       -2.62041       -1.17650
H          3.30441        0.22476       -2.41089
H          2.29046        1.65270       -2.23448
C          3.99264        1.64172       -0.94175
C          3.77485        2.93698       -0.44937
H          2.80946        3.42150       -0.62130
C          5.25626        1.06872       -0.74936
H          5.46455        0.07356       -1.14227
C          4.76675        3.63036        0.24116
H          4.60151        4.63886        0.62434
C          6.25997        1.74770       -0.06490
H          7.24396        1.30069        0.08737
C          6.00087        3.01991        0.43058
F          6.95775        3.67324        1.08936
H          1.78974        1.73694        0.88525
H          0.57958        0.54258        1.34359
C          2.53552        0.09244        2.06125
C          2.13373       -1.01323        2.82506
H          1.14255       -1.44901        2.67051
C          3.79345        0.64956        2.32320
H          4.12269        1.52410        1.76274
C          2.96579       -1.56950        3.79426
H          2.65571       -2.43012        4.38946
C          4.63654        0.10962        3.28938
H          5.61785        0.54272        3.49111
C          4.21571       -1.00178        4.00969
F          5.01984       -1.52576        4.93368
H         -1.56152        3.11746       -0.69861
H         -0.84721        2.48781        0.78710
C         -2.88933        3.16532        0.99499
C         -3.03138        2.93369        2.37072
H         -2.28605        2.33085        2.89514
C         -3.83826        3.97997        0.36110
H         -3.72638        4.20428       -0.70343
C         -4.10618        3.46493        3.07975
H         -4.19814        3.26849        4.15062
C         -4.91410        4.51413        1.06777
H         -5.64296        5.14278        0.55100
C         -5.05815        4.24987        2.42882
H         -5.90190        4.66541        2.98426
H         -3.96136        1.95654       -1.32462
H         -3.60084        0.46471       -2.19480
C         -4.91593        0.20927       -0.52677
C         -5.41263       -0.99551       -1.04042
H         -4.93803       -1.43713       -1.92015
C         -5.54115        0.75280        0.60457
H         -5.18764        1.69891        1.01951
C         -6.49453       -1.64580       -0.45288
H         -6.88457       -2.58365       -0.85221
C         -6.61868        0.11137        1.21023
H         -7.11006        0.53208        2.08933
C         -7.08330       -1.08379        0.67267
F         -8.11767       -1.69837        1.24554
H         -1.41952        0.22269        1.82008
H         -3.18244        0.29781        1.69819
C         -2.33521       -1.59818        1.15957
C         -3.54227       -2.28396        1.33150
H         -4.45924       -1.72165        1.51566
C         -1.17190       -2.35230        0.95721
H         -0.22096       -1.83635        0.83019
C         -3.59737       -3.67435        1.27715
H         -4.53845       -4.21144        1.40767
C         -1.20541       -3.74261        0.90165
H         -0.29977       -4.33180        0.74519
C         -2.42666       -4.38773        1.05451
F         -2.47229       -5.71839        0.99897
