92
Cat602.ts34.5.log	Energy: -2255681.5684658
C         -0.76688       -0.04579        4.21806
H         -0.26574        0.62021        4.92567
H         -1.83972        0.14713        4.12550
C         -0.31637       -1.41134        4.17040
H          0.55780       -1.71265        4.75328
H         -1.06886       -2.20437        4.09925
H         -0.19300       -1.76023        2.58188
Ir         0.38782       -0.20187        2.39440
O         -1.90229       -1.27604        0.25992
C         -2.93226        0.92073        1.66368
C         -1.08757        1.15250       -0.58289
O          1.95353       -0.41306       -0.66553
C          3.64473       -1.03896        1.39247
C          1.54704       -2.80622        0.31766
P          1.86430       -1.05640        0.87440
P         -1.38104        0.18015        0.94886
C          1.56107        1.18659        2.92349
O          2.27930        2.04037        3.23415
C         -3.07873       -1.57240       -0.35901
C         -3.96612       -2.42679        0.29959
H         -3.69420       -2.80183        1.28810
C         -3.37969       -1.12360       -1.64763
H         -2.66354       -0.50840       -2.19177
C         -5.17723       -2.77356       -0.28831
H         -5.88232       -3.42713        0.22783
C         -4.59735       -1.45338       -2.23337
H         -4.85409       -1.07975       -3.22555
C         -5.49887       -2.26183       -1.54418
Cl        -7.03761       -2.62939       -2.25210
H         -2.55236        1.79192        2.22242
H         -3.27203        0.19647        2.42036
C         -4.06188        1.31236        0.75501
C         -5.24130        0.55881        0.71689
H         -5.34565       -0.30548        1.37547
C         -3.97022        2.44102       -0.07141
H         -3.08187        3.07551       -0.02744
C         -6.27259        0.87981       -0.16095
H         -7.17102        0.25886       -0.19107
C         -5.00259        2.76725       -0.94834
H         -4.90597        3.64819       -1.58771
C         -6.15172        1.98046       -1.00780
H         -6.95647        2.23097       -1.70291
H         -2.02239        1.14519       -1.16479
H         -0.35321        0.55029       -1.14399
C         -0.60859        2.57728       -0.46626
C         -0.44276        3.30793       -1.65088
H         -0.64081        2.82133       -2.60970
C         -0.34363        3.21805        0.74808
H         -0.43478        2.66700        1.68586
C         -0.01681        4.63141       -1.62552
H          0.12807        5.17326       -2.56258
C          0.08512        4.54514        0.77691
H          0.29658        5.01873        1.73857
C          0.25210        5.25658       -0.40787
H          0.59686        6.29295       -0.38724
C          2.29227        0.81209       -1.12533
C          2.28837        0.95062       -2.51834
H          2.02508        0.08044       -3.12360
C          2.63809        1.89687       -0.31824
H          2.62149        1.81745        0.76670
C          2.62120        2.16723       -3.09982
H          2.61535        2.28518       -4.18466
C          2.97614        3.11523       -0.90281
H          3.22807        3.97009       -0.27473
C          2.96191        3.24842       -2.28669
Cl         3.33628        4.78160       -3.00775
H          3.63564       -1.51210        2.38647
H          3.89520        0.02038        1.56019
C          4.61548       -1.70376        0.46835
C          5.06349       -1.06252       -0.69402
H          4.73413       -0.04453       -0.91235
C          5.07145       -3.00203        0.73207
H          4.74918       -3.50937        1.64608
C          5.92271       -1.71079       -1.57660
H          6.25506       -1.19520       -2.48066
C          5.93485       -3.65156       -0.14876
H          6.27896       -4.66386        0.07598
C          6.35793       -3.00941       -1.31139
H          7.03200       -3.51673       -2.00544
H          0.60433       -3.08969        0.80285
H          2.35124       -3.42534        0.74335
C          1.45238       -2.98892       -1.16981
C          2.57272       -3.31348       -1.94023
H          3.53632       -3.47853       -1.45478
C          0.22812       -2.77873       -1.81514
H         -0.64603       -2.51607       -1.21697
C          2.47354       -3.41149       -3.32672
H          3.36127       -3.66271       -3.91244
C          0.12764       -2.87783       -3.20036
H         -0.83856       -2.71340       -3.68457
C          1.25309       -3.18973       -3.96366
H          1.17721       -3.26815       -5.05099
