96
Cat631.ts34.5.log	Energy: -1633964.7033989
C         -0.91932       -3.99611       -0.71188
H         -0.64409       -4.79780       -0.02082
H         -1.98743       -3.98575       -0.95717
C          0.01126       -3.71283       -1.78329
H          0.97767       -4.22663       -1.80182
H         -0.39868       -3.58262       -2.79272
H          0.10215       -2.17158       -1.83630
Ir         0.02907       -2.15937       -0.13914
C         -1.87934        0.60930       -1.43481
C         -3.48947       -1.64027       -0.33353
C         -1.98614        0.13992        1.51659
C          1.87118        0.41237        1.39894
C          3.43099       -1.62584       -0.15671
C          1.89659        0.48413       -1.58981
P          1.81846       -0.67361       -0.12268
P         -1.85214       -0.74910       -0.13341
C          0.51681       -2.69614        1.59595
O          0.83954       -2.94096        2.68417
H         -1.26553        0.18469       -2.24196
H         -1.30447        1.43882       -0.99662
C         -3.17150        1.10569       -2.00476
C         -3.81081        2.24772       -1.50761
H         -3.35990        2.80320       -0.68507
C         -3.76056        0.43319       -3.08579
H         -3.25803       -0.44006       -3.51223
C         -5.01684        2.68263       -2.05115
H         -5.49870        3.57323       -1.64057
C         -4.96781        0.86582       -3.63097
H         -5.40945        0.32402       -4.47082
C         -5.60624        1.99066       -3.10891
H         -6.55320        2.33243       -3.53321
H         -3.24370       -2.66955       -0.03713
H         -3.68671       -1.65986       -1.41586
C         -4.69677       -1.18278        0.42538
C         -5.65111       -0.32695       -0.13834
H         -5.52502        0.02119       -1.16355
C         -4.90555       -1.63579        1.73695
H         -4.19076       -2.33394        2.18266
C         -6.76065        0.08600        0.59520
H         -7.48792        0.75783        0.13284
C         -6.01277       -1.22057        2.47434
H         -6.15156       -1.58404        3.49540
C         -6.94358       -0.35026        1.90719
H         -7.81309       -0.02323        2.48222
H         -0.95790        0.11565        1.89865
H         -2.57074       -0.53599        2.15757
C         -2.51597        1.53889        1.58391
C         -3.85876        1.81410        1.86961
H         -4.54969        0.99196        2.05624
C         -1.64848        2.62240        1.38124
H         -0.58684        2.43195        1.20419
C         -4.32288        3.12645        1.91814
H         -5.37659        3.31313        2.13900
C         -2.11008        3.93645        1.42405
H         -1.41270        4.76210        1.26188
C         -3.45561        4.19385        1.68594
H         -3.82277        5.22218        1.72193
H          1.22790       -0.12065        2.11279
H          1.34517        1.33593        1.11630
C          3.18098        0.72772        2.05136
C          3.86439        1.92122        1.79279
H          3.43938        2.64758        1.09856
C          3.73482       -0.17871        2.96695
H          3.19343       -1.09993        3.20339
C          5.08313        2.18911        2.41167
H          5.60250        3.12513        2.19240
C          4.95517        0.08781        3.58482
H          5.37196       -0.63131        4.29402
C          5.63783        1.27163        3.30370
H          6.59456        1.48229        3.78741
H          3.13711       -2.55877       -0.65786
H          3.62654       -1.88955        0.89368
C          4.64377       -1.04570       -0.81676
C          5.61285       -0.33368       -0.09975
H          5.49854       -0.20038        0.97608
C          4.83841       -1.22784       -2.19405
H          4.11185       -1.81357       -2.76506
C          6.72222        0.20706       -0.74516
H          7.46118        0.76339       -0.16346
C          5.94682       -0.68664       -2.84269
H          6.07581       -0.83948       -3.91689
C          6.89115        0.04188       -2.11968
H          7.76129        0.46819       -2.62442
H          0.85447        0.54247       -1.92859
H          2.45184       -0.06548       -2.36440
C          2.45051        1.86448       -1.40415
C          3.79441        2.16526       -1.65573
H          4.46603        1.38282       -2.00914
C          1.60854        2.90174       -0.97727
H          0.54611        2.70044       -0.81675
C          4.28512        3.45374       -1.45774
H          5.33924        3.66081       -1.65705
C          2.09765        4.19032       -0.77289
H          1.42062        4.98021       -0.43851
C          3.44382        4.47014       -1.00623
H          3.83186        5.47903       -0.84798
