106
Cat665.ts34.5.log	Energy: -1872031.2953447
C         -1.28805       -2.48480       -2.78888
H         -1.14582       -3.56656       -2.71932
H         -2.30336       -2.19760       -3.08013
C         -0.19009       -1.71082       -3.31744
H          0.77084       -2.19896       -3.50500
H         -0.41321       -0.92685       -4.05119
H         -0.12891       -0.44315       -2.35985
Ir        -0.40680       -1.49252       -1.08484
C         -3.80146       -0.34224       -1.39360
O         -3.01681       -0.94573        1.01198
O         -2.15334        1.18360        0.15990
C          0.85653        0.23739        1.73021
O          2.59698       -1.25187        0.37998
O          1.75462        0.90762       -0.81599
P          1.21664       -0.38312        0.05245
P         -2.26965       -0.41013       -0.37138
C         -0.00195       -3.12363       -0.18929
O          0.23529       -4.10147        0.37673
H         -3.48770        0.11062       -2.34767
H         -4.03814       -1.39474       -1.60930
C         -4.95449        0.40316       -0.79245
C         -5.01095        1.79441       -0.93236
H         -4.23083        2.30490       -1.50328
C         -5.96498       -0.26243       -0.06851
C         -5.96641       -1.75534        0.09032
H         -5.05050       -2.10030        0.59143
H         -6.02244       -2.26592       -0.88574
H         -6.82965       -2.08539        0.68420
C         -6.03673        2.53881       -0.35829
H         -6.05609        3.62443       -0.47865
C         -6.99045        0.50187        0.49823
H         -7.77732       -0.00981        1.05931
C         -7.03165        1.88766        0.36566
H         -7.84472        2.45584        0.82399
C         -2.34565       -1.06628        2.20092
C         -1.73121       -2.27217        2.52601
H         -1.80219       -3.10622        1.82753
C         -2.30155        0.01982        3.07635
H         -2.80127        0.94656        2.79248
C         -1.02039       -2.40702        3.72479
C         -0.34714       -3.70748        4.05489
H         -1.07566       -4.44178        4.43649
H          0.12012       -4.14737        3.16141
H          0.42565       -3.57713        4.82580
C         -1.60543       -0.11279        4.27379
H         -1.55162        0.73189        4.96449
C         -0.96142       -1.30927        4.59157
H         -0.40603       -1.39339        5.52933
C         -1.65042        2.26513       -0.47893
C         -1.38879        2.30343       -1.84972
H         -1.53436        1.40657       -2.45319
C         -1.44175        3.40727        0.30350
H         -1.66025        3.35921        1.37165
C         -0.92643        3.47688       -2.45772
C         -0.58935        3.47839       -3.91997
H          0.41625        3.05514       -4.08295
H         -1.29743        2.86822       -4.50003
H         -0.59169        4.49607       -4.33497
C         -0.99875        4.57719       -0.30062
H         -0.85196        5.47317        0.30756
C         -0.74619        4.61941       -1.67271
H         -0.39737        5.54518       -2.13672
H         -0.06650        0.81548        1.57296
H          0.54753       -0.66868        2.27504
C          1.86822        1.04876        2.48220
C          1.84317        2.44180        2.35071
H          1.08208        2.89774        1.71260
C          2.82604        0.44725        3.32232
C          2.84036       -1.03417        3.56289
H          3.00474       -1.58902        2.62897
H          1.87650       -1.37520        3.97550
H          3.62915       -1.30901        4.27651
C          2.78080        3.24544        2.98863
H          2.75438        4.32873        2.85283
C          3.76086        1.27182        3.95868
H          4.51049        0.81117        4.60823
C          3.75399        2.65392        3.79006
H          4.50333        3.26867        4.29458
C          3.17157       -2.08919       -0.54434
C          3.37915       -1.68613       -1.86176
H          3.06510       -0.68817       -2.17362
C          3.56584       -3.35470       -0.11315
H          3.37436       -3.65140        0.91902
C          3.98305       -2.55359       -2.77959
C          4.19805       -2.10850       -4.19753
H          3.24594       -1.82833       -4.67586
H          4.85140       -1.22268       -4.24053
H          4.66052       -2.90001       -4.80318
C          4.17230       -4.21517       -1.02164
H          4.48128       -5.21123       -0.69615
C          4.37763       -3.82198       -2.34411
H          4.85077       -4.51004       -3.04918
C          2.74088        1.82803       -0.54434
C          2.44844        3.14555       -0.87961
H          1.46085        3.36761       -1.28665
C          3.98166        1.48080       -0.00847
H          4.20207        0.44893        0.25876
C          3.38301        4.16098       -0.65850
C          3.04000        5.58210       -1.00121
H          2.82454        5.69236       -2.07594
H          2.13944        5.91244       -0.45953
H          3.86064        6.26794       -0.74856
C          4.90973        2.49284        0.21522
H          5.87691        2.23838        0.65457
C          4.61941        3.81886       -0.10216
H          5.36088        4.59920        0.08738
