110
Cat663.ts34.5.log	Energy: -1498166.7059496
C         -1.12201       -0.23124       -3.31194
H         -0.91822       -1.08487       -3.96424
H         -2.18919        0.01540       -3.24929
C         -0.18640        0.87046       -3.35967
H          0.72749        0.76879       -3.95237
H         -0.59508        1.88787       -3.40960
H          0.04129        1.25521       -1.86535
Ir         0.01567       -0.39744       -1.49430
C         -2.69025        1.60638       -0.33768
C         -3.20749       -1.30651       -0.59615
C         -1.74225       -0.27565        1.65901
C          2.60644       -1.45558        0.67760
C          3.26306        0.73915       -1.23142
C          1.73678        1.24965        1.16648
P          1.89517        0.02681       -0.20570
P         -1.88672       -0.07836       -0.16987
C          0.47792       -2.21022       -1.68620
O          0.77191       -3.33168       -1.74907
H         -1.98961        2.27646        0.18604
H         -2.60171        1.85068       -1.40560
C         -4.08601        1.79895        0.16489
C         -4.30723        2.00649        1.53297
H         -3.44521        2.09392        2.19956
C         -5.19646        1.73952       -0.70501
C         -5.02755        1.59012       -2.18998
H         -4.49996        0.66260       -2.45890
H         -4.44526        2.42280       -2.61687
H         -6.00282        1.57255       -2.69498
C         -5.59239        2.09477        2.05916
H         -5.73543        2.24629        3.13160
C         -6.48187        1.83214       -0.16054
H         -7.34270        1.77855       -0.83296
C         -6.68964        1.99243        1.20763
H         -7.70606        2.05464        1.60310
H         -2.65777       -2.24843       -0.75898
H         -3.55969       -1.01285       -1.59653
C         -4.36647       -1.52763        0.36735
H         -3.97100       -1.90899        1.32349
H         -4.86674       -0.57630        0.60536
C         -5.42266       -2.51728       -0.13576
H         -4.90537       -3.46073       -0.39463
C         -6.42421       -2.81585        0.97440
H         -5.92578       -3.22180        1.86870
H         -7.18218       -3.54581        0.65004
H         -6.95201       -1.89569        1.27646
C         -6.14081       -2.01502       -1.38394
H         -6.90647       -2.73325       -1.71588
H         -5.45221       -1.85972       -2.22796
H         -6.64476       -1.05576       -1.17931
H         -2.72968       -0.14492        2.13124
H         -1.10521        0.55282        2.00678
C         -1.14385       -1.62513        2.02719
H         -1.78707       -2.42678        1.62610
H         -0.18191       -1.74433        1.49956
C         -0.95227       -1.87324        3.52544
H         -1.93936       -1.75495        4.01123
C         -0.48051       -3.30362        3.76183
H         -1.18413       -4.03522        3.33545
H         -0.37451       -3.52218        4.83571
H          0.50093       -3.47470        3.28847
C          0.00435       -0.87754        4.17176
H          0.11433       -1.07551        5.24904
H         -0.33985        0.16171        4.06299
H          1.00917       -0.94980        3.72185
H          1.92464       -1.61004        1.52812
H          2.44913       -2.30556        0.00184
C          4.02593       -1.37412        1.14383
C          4.32808       -0.74431        2.35784
H          3.50858       -0.37467        2.97998
C          5.07712       -1.89908        0.36199
C          4.81070       -2.65549       -0.90843
H          4.21223       -2.07761       -1.62790
H          4.24731       -3.58247       -0.71283
H          5.75107       -2.93388       -1.40311
C          5.64261       -0.57395        2.78230
H          5.85170       -0.07050        3.72901
C          6.39263       -1.72118        0.80393
H          7.20974       -2.12107        0.19700
C          6.68388       -1.05406        1.99200
H          7.72225       -0.92573        2.30636
H          2.74659        1.40433       -1.94343
H          3.62028       -0.10261       -1.84370
C          4.41028        1.47719       -0.55346
H          4.00899        2.35381       -0.01786
H          4.88429        0.84397        0.21218
C          5.49644        1.96666       -1.51719
H          5.00557        2.58474       -2.29323
C          6.49213        2.84777       -0.77086
H          5.99401        3.70822       -0.29694
H          7.27112        3.23770       -1.44437
H          6.99423        2.27347        0.02564
C          6.21589        0.81666       -2.21404
H          7.00155        1.19236       -2.88771
H          5.53325        0.20146       -2.81912
H          6.69406        0.15579       -1.47239
H          2.72229        1.39215        1.63910
H          1.08541        0.77494        1.91607
C          1.16343        2.57972        0.70487
H          1.80403        2.99553       -0.09218
H          0.18627        2.39671        0.22513
C          1.00795        3.63942        1.79840
H          2.00285        3.79535        2.25685
C          0.56049        4.96169        1.18566
H          1.26532        5.30705        0.41341
H          0.47933        5.75291        1.94687
H         -0.42875        4.85610        0.70920
C          0.04941        3.20547        2.90156
H         -0.04430        3.98354        3.67458
H          0.38082        2.28386        3.40245
H         -0.95976        3.02398        2.49393
