100
Cat695.ts34.5.log	Energy: -1541421.3002388
C          1.06834       -3.89218        0.70497
H          1.02904       -4.73944        0.01454
H          2.05325       -3.76213        1.16796
C         -0.09420       -3.68394        1.54622
H         -0.98253       -4.30294        1.38466
H          0.07865       -3.50102        2.61498
H         -0.33770       -2.17079        1.51742
Ir         0.07359       -2.18514       -0.13631
C          2.43270       -0.10557        1.76099
C          3.39585       -1.55385       -0.57419
C          1.79785        0.89592       -0.88045
C         -2.02948       -0.20592       -2.18836
C         -3.34513       -1.78836       -0.06838
C         -1.80091        0.68737        0.61755
P         -1.77922       -0.83178       -0.47214
P          1.87470       -0.70648        0.10669
C         -0.00801       -2.86453       -1.88852
O         -0.04703       -3.23557       -2.98677
H          3.33226        0.52269        1.65020
H          1.63539        0.56885        2.11539
C          2.65129       -1.21747        2.77503
H          3.42771       -1.91406        2.41310
H          1.72869       -1.81557        2.85512
C          3.05003       -0.68856        4.14427
H          3.98737       -0.11156        4.09171
H          2.27663       -0.01759        4.55088
H          3.19928       -1.50558        4.86669
H          3.56687       -2.40061        0.10837
H          3.04984       -1.99578       -1.51978
C          4.64267       -0.75699       -0.77967
C          5.00356       -0.32915       -2.06440
H          4.37930       -0.60625       -2.91820
C          5.47697       -0.41441        0.29182
H          5.22618       -0.76675        1.29608
C          6.15747        0.42569       -2.26076
H          6.43447        0.74325       -3.26897
C          6.62762        0.35927        0.11765
C          7.46129        0.76452        1.29788
H          7.08881        1.70995        1.72734
H          7.42709        0.00844        2.09565
H          8.51264        0.92300        1.01764
C          6.96190        0.77319       -1.17795
H          7.86755        1.36457       -1.33876
H          2.32843        0.69317       -1.82313
H          0.73703        1.01670       -1.13945
C          2.32209        2.13954       -0.22190
C          1.49258        2.90742        0.60483
H          0.44611        2.62781        0.74396
C          3.65219        2.54699       -0.38592
H          4.31145        1.96390       -1.03181
C          1.98643        4.03503        1.25640
H          1.32426        4.62123        1.89836
C          4.16340        3.67817        0.25730
C          5.58581        4.10840        0.04079
H          6.17321        3.31337       -0.43831
H          5.63467        4.99883       -0.60770
H          6.07344        4.37598        0.99095
C          3.31391        4.41643        1.09048
H          3.69686        5.30151        1.60645
H         -1.26660        0.58034       -2.31669
H         -1.70452       -1.03054       -2.84335
C         -3.39874        0.30383       -2.62172
H         -3.81400        0.98983       -1.86841
H         -4.09450       -0.54920       -2.68394
C         -3.34206        1.00569       -3.96969
H         -2.70597        1.90335       -3.91506
H         -2.92698        0.34782       -4.75009
H         -4.34229        1.32774       -4.29714
H         -3.67977       -2.20828       -1.02928
H         -2.97027       -2.63617        0.52050
C         -4.46884       -1.12197        0.66457
C         -4.43600       -1.04738        2.06499
H         -3.59428       -1.48667        2.60784
C         -5.57297       -0.58228       -0.00045
H         -5.61875       -0.64243       -1.09014
C         -5.47001       -0.43272        2.76473
H         -5.43261       -0.37963        3.85552
C         -6.62409        0.03606        0.68475
C         -7.79669        0.59046       -0.07075
H         -7.46841        1.15806       -0.95461
H         -8.45349       -0.21888       -0.42976
H         -8.40420        1.25687        0.55747
C         -6.55682        0.10972        2.07991
H         -7.36690        0.59038        2.63520
H         -2.17662        0.34546        1.59341
H         -0.73168        0.89857        0.76033
C         -2.52512        1.91641        0.15425
C         -1.94012        2.77364       -0.78626
H         -0.93438        2.57227       -1.16198
C         -3.79804        2.23578        0.64324
H         -4.25633        1.58912        1.39429
C         -2.63071        3.89049       -1.25101
H         -2.16304        4.54760       -1.98829
C         -4.50226        3.35537        0.19259
C         -5.86411        3.68006        0.73550
H         -6.17037        2.95550        1.50191
H         -5.88389        4.68546        1.18516
H         -6.62398        3.66907       -0.06218
C         -3.90660        4.17506       -0.77470
H         -4.44301        5.05381       -1.14381
