102
Cat644.ts34.5.log	Energy: -1588303.1184855
C          1.41454       -2.64045       -2.25632
H          1.32851       -2.50276       -3.33764
H          2.44427       -2.79427       -1.91998
C          0.37175       -3.39195       -1.60243
H         -0.50440       -3.71046       -2.17412
H          0.66348       -4.13129       -0.84771
H          0.02492       -2.55047       -0.27693
Ir         0.21822       -1.16958       -1.21488
C          2.96763       -1.67196        1.06093
O          3.02011        0.56920       -0.37056
O          1.19852        0.43513        1.45584
C         -1.50717        1.59801        0.10547
O         -3.03437       -0.46718       -0.59430
O         -1.55367       -0.85793        1.47286
P         -1.50558       -0.24582       -0.04090
P          1.85208       -0.43778        0.21671
C         -0.16027       -0.15935       -2.77240
O         -0.38183        0.49491       -3.70311
H          2.43929       -1.96643        1.98162
H          2.91139       -2.54678        0.39369
C          4.39817       -1.30344        1.33343
C          4.80435       -0.93375        2.61997
H          4.07568       -0.94955        3.43420
C          5.36325       -1.34103        0.30321
C          5.02257       -1.82893       -1.07398
H          4.17558       -1.27943       -1.50654
H          4.74586       -2.89676       -1.06010
H          5.87964       -1.72227       -1.75278
C          6.11588       -0.55769        2.89713
H          6.39865       -0.27205        3.91301
C          6.67509       -0.95526        0.59459
H          7.41845       -0.97840       -0.20714
C          7.05696       -0.55510        1.87279
H          8.08967       -0.25687        2.06811
C          2.91025        1.19999       -1.63544
H          3.94285        1.41972       -1.95044
H          2.47471        0.49142       -2.36245
C          2.07721        2.46177       -1.58780
H          1.08692        2.19770       -1.18125
H          2.53131        3.17080       -0.87593
C          1.90706        3.11945       -2.94886
H          1.46359        2.39167       -3.64892
H          2.89901        3.37909       -3.35981
C          1.03382        4.36262       -2.89279
H          0.02293        4.11942       -2.52689
H          1.45456        5.12013       -2.21198
H          0.92333        4.82732       -3.88400
C          1.82060        0.82888        2.66701
H          0.99120        1.10329        3.34038
H          2.32643       -0.03451        3.12488
C          2.77518        1.99448        2.51229
H          3.27559        2.15383        3.48401
H          3.56553        1.71607        1.79684
C          2.08355        3.27401        2.06514
H          1.34543        3.57576        2.83012
H          1.50267        3.06027        1.15402
C          3.04839        4.41685        1.79984
H          3.62690        4.67368        2.70193
H          3.77303        4.14770        1.01441
H          2.52169        5.32565        1.47111
H         -0.80144        1.83042        0.91638
H         -0.99311        1.89369       -0.82088
C         -2.81040        2.32954        0.23875
C         -3.25243        2.77319        1.48914
H         -2.62939        2.59451        2.36862
C         -3.59029        2.61633       -0.90310
C         -3.12539        2.25147       -2.28216
H         -2.95888        1.17091       -2.38374
H         -2.17074        2.74314       -2.53245
H         -3.86047        2.55673       -3.03901
C         -4.46149        3.44684        1.64120
H         -4.78148        3.77793        2.63192
C         -4.80333        3.29079       -0.73351
H         -5.40961        3.50892       -1.61703
C         -5.24927        3.69666        0.52213
H         -6.20327        4.21993        0.62132
C         -3.36852       -1.51648       -1.49234
H         -4.10605       -1.09340       -2.19417
H         -2.46570       -1.79643       -2.06464
C         -3.94224       -2.72030       -0.77782
H         -4.08339       -3.52059       -1.52636
H         -3.18981       -3.09825       -0.06270
C         -5.25664       -2.44352       -0.06389
H         -5.99529       -2.08248       -0.80132
H         -5.10705       -1.60831        0.63927
C         -5.80991       -3.65573        0.66579
H         -5.99798       -4.48995       -0.02944
H         -5.10251       -4.01896        1.42852
H         -6.75749       -3.42689        1.17616
C         -1.87297       -0.19503        2.67877
H         -1.27015       -0.69066        3.45791
H         -1.53298        0.85131        2.63683
C         -3.34430       -0.27314        3.02816
H         -3.51509        0.36399        3.91481
H         -3.93242        0.17800        2.21107
C         -3.82840       -1.68728        3.31026
H         -3.22062       -2.12184        4.12398
H         -3.63090       -2.31139        2.42362
C         -5.30040       -1.74886        3.68117
H         -5.50799       -1.16142        4.59021
H         -5.93121       -1.33941        2.87631
H         -5.63061       -2.78158        3.86831
