84
Cat616.ts34.5.log	Energy: -1440417.0575157
C         -1.01541       -3.37539       -0.94249
H         -0.73889       -4.28033       -0.39422
H         -2.09889       -3.23725       -1.03092
C         -0.18825       -3.01275       -2.06650
H          0.72238       -3.58318       -2.26971
H         -0.68274       -2.68095       -2.98701
H          0.03376       -1.43228       -1.91060
Ir         0.15709       -1.68877       -0.25716
C         -2.81471       -0.06146       -1.30450
O         -2.78787       -0.78430        1.20934
O         -1.17299        1.14633        0.63078
C          1.95390        0.73825        1.50019
O          3.26010       -0.35847       -0.56778
O          1.42359        1.32703       -1.01937
P          1.70939       -0.02697       -0.14557
P         -1.65106       -0.33088        0.10612
C          0.91420       -2.59304        1.22912
O          1.36667       -3.09733        2.16870
H         -3.04804       -1.09692       -1.60913
H         -2.17597        0.35158       -2.10089
C         -4.07593        0.73928       -1.15554
C         -4.26946        1.89586       -1.92119
H         -3.49821        2.20215       -2.63321
C         -5.09764        0.34521       -0.27881
H         -4.96150       -0.55538        0.32022
C         -5.42852        2.65904       -1.79385
H         -5.55411        3.55930       -2.40044
C         -6.25590        1.10675       -0.15081
H         -7.03739        0.78630        0.54281
C         -6.42503        2.27055       -0.90129
H         -7.33482        2.86650       -0.79729
C         -2.40314       -1.34661        2.46972
H         -1.33919       -1.10604        2.65023
C         -2.56367       -2.85162        2.41650
H         -1.92883       -3.27104        1.62510
H         -3.61231       -3.11587        2.20849
H         -2.27112       -3.30650        3.37467
C         -3.26208       -0.70112        3.53727
H         -3.14055        0.39080        3.53576
H         -4.32537       -0.92476        3.35979
H         -2.99046       -1.08115        4.53335
C         -1.98782        2.29705        0.88078
H         -3.05067        2.01243        0.81093
C         -1.65876        3.34044       -0.16730
H         -1.83824        2.94883       -1.17673
H         -0.59697        3.62035       -0.09967
H         -2.27814        4.23954       -0.03212
C         -1.69133        2.78057        2.28632
H         -1.90095        1.99377        3.02371
H         -0.63231        3.06606        2.38230
H         -2.30792        3.65828        2.53129
H          2.22681       -0.09516        2.16629
H          0.95022        1.08432        1.78605
C          2.96568        1.83801        1.52137
C          2.58035        3.16152        1.27634
H          1.52551        3.38243        1.09881
C          4.32231        1.56574        1.73208
H          4.63751        0.53570        1.91494
C          3.52308        4.18673        1.24852
H          3.20204        5.21447        1.06056
C          5.26729        2.58847        1.70452
H          6.32173        2.35708        1.87459
C          4.87165        3.90328        1.46126
H          5.61263        4.70605        1.44122
C          3.70380       -1.63335       -1.03713
H          2.80581       -2.23787       -1.26597
C          4.48223       -2.31527        0.06911
H          3.84230       -2.47657        0.94878
H          5.34540       -1.70030        0.36833
H          4.85307       -3.29628       -0.26412
C          4.51579       -1.41043       -2.29571
H          3.90582       -0.93252       -3.07629
H          5.38048       -0.76123       -2.08791
H          4.88755       -2.36835       -2.68913
C          2.01011        1.62570       -2.28304
H          3.07537        1.34182       -2.24159
C          1.90535        3.12554       -2.46088
H          2.41075        3.64127       -1.63237
H          0.84946        3.43747       -2.47499
H          2.37377        3.43526       -3.40697
C          1.32843        0.84855       -3.39418
H          1.44206       -0.23572       -3.24921
H          0.25118        1.07619       -3.41668
H          1.76229        1.11194       -4.37068
