88
Cat680.ts34.5.log	Energy: -1442822.5345933
C          1.04261       -3.23057        0.70331
H          1.06170       -4.02560       -0.04802
H          2.00381       -3.08298        1.20783
C         -0.16239       -3.10742        1.49229
H         -1.03615       -3.71645        1.24135
H         -0.05225       -2.97997        2.57681
H         -0.41747       -1.56843        1.56466
Ir         0.05499       -1.47973       -0.05296
C          1.70390        1.01113        2.01255
C          3.46075       -0.49952        0.28165
C          1.74762        1.45485       -0.82605
C         -1.71328        0.93143       -1.93299
C         -3.38013       -0.72161       -0.23920
C         -1.76286        1.30632        0.95042
P         -1.69990        0.00914       -0.34129
P          1.72353        0.09583        0.41340
C          0.04544       -2.00838       -1.86223
O          0.05480       -2.27668       -2.99121
H          2.50667        1.76711        2.04625
H          0.74807        1.55938        2.02447
C          1.77781        0.08624        3.21837
H          2.72476       -0.47996        3.19664
H          0.97389       -0.66361        3.13100
C          1.64861        0.83468        4.53556
H          2.45711        1.57321        4.65944
H          0.69210        1.37959        4.58360
H          1.68996        0.14909        5.39578
C          3.73285       -1.60526       -0.53021
H          2.89835       -2.11763       -1.01606
C          4.53490        0.14044        0.91170
H          4.36461        1.01725        1.54055
C          5.03898       -2.05194       -0.71224
H          5.22561       -2.91404       -1.35896
C          5.83678       -0.31897        0.73875
H          6.65945        0.19722        1.24221
C          6.11456       -1.42338       -0.07631
C          7.51713       -1.93206       -0.23647
H          7.77042       -2.64615        0.56524
H          7.64908       -2.45602       -1.19407
H          8.25120       -1.11442       -0.18752
C          1.60407        2.80641       -0.50498
H          1.53166        3.12466        0.53575
C          1.84140        1.10348       -2.18192
H          1.93217        0.04986       -2.45754
C          1.52109        3.77273       -1.51055
H          1.39217        4.82317       -1.23324
C          1.77797        2.06939       -3.17557
H          1.84778        1.76486       -4.22376
C          1.59996        3.42584       -2.86044
C          1.48789        4.45583       -3.94571
H          2.35060        4.41252       -4.62890
H          0.58564        4.29077       -4.55720
H          1.43233        5.47313       -3.53351
H         -0.78830        1.53228       -1.92702
H         -1.54416        0.15845       -2.70060
C         -2.92850        1.77676       -2.28503
H         -3.17171        2.46161       -1.45558
H         -3.80796        1.12280       -2.39897
C         -2.70560        2.57919       -3.55878
H         -1.85463        3.27102       -3.44753
H         -2.47991        1.91790       -4.41049
H         -3.59271        3.17496       -3.82258
C         -3.55219       -2.06344       -0.59037
H         -2.66823       -2.64786       -0.86538
C         -4.50346        0.02324        0.14224
H         -4.39065        1.07082        0.43232
C         -4.81859       -2.64219       -0.57510
H         -4.93317       -3.69217       -0.85911
C         -5.76443       -0.56410        0.16497
H         -6.62986        0.03252        0.46764
C         -5.94592       -1.90624       -0.19370
C         -7.30370       -2.54239       -0.13500
H         -7.38133       -3.39217       -0.82827
H         -7.51432       -2.92522        0.87782
H         -8.09782       -1.82254       -0.38184
C         -1.44705        2.64448        0.70957
H         -1.23203        2.98880       -0.30259
C         -2.01853        0.91159        2.27268
H         -2.26422       -0.13294        2.48353
C         -1.36665        3.55721        1.76372
H         -1.10492        4.59742        1.55011
C         -1.94770        1.82482        3.31493
H         -2.15026        1.49100        4.33666
C         -1.60685        3.16695        3.08228
C         -1.48955        4.13401        4.22295
H         -2.39208        4.12198        4.85348
H         -0.63847        3.87337        4.87355
H         -1.33579        5.16231        3.86737
