76
Cat678.ts34.5.log	Energy: -1593191.5321774
C          0.96473       -3.28111        0.44625
H          0.98844       -4.01970       -0.36014
H          1.92323       -3.16731        0.96397
C         -0.24400       -3.20673        1.23044
H         -1.11597       -3.79924        0.93799
H         -0.14276       -3.13770        2.32050
H         -0.53297       -1.66456        1.39269
Ir        -0.01132       -1.47547       -0.19983
C          1.66853        0.75421        2.13205
C          3.40080       -0.65487        0.29453
C          1.82665        1.49821       -0.63292
C         -1.88172        0.89528       -2.03951
C         -3.42265       -0.64996       -0.15314
C         -1.67942        1.40084        0.81274
P         -1.74320        0.04279       -0.41471
P          1.68840        0.00920        0.44672
C         -0.02651       -1.92226       -2.03151
O         -0.03579       -2.15299       -3.16816
H          2.54037        1.41105        2.28840
H          0.77764        1.40218        2.15359
C          1.58006       -0.28413        3.24066
H          2.44653       -0.96566        3.18477
H          0.69102       -0.91020        3.06021
C          1.50153        0.34621        4.62200
H          2.39845        0.94704        4.84243
H          0.63041        1.01621        4.70033
H          1.41172       -0.41746        5.40935
C          4.46990       -0.21549        1.08472
H          4.31438        0.53397        1.86328
C          3.65077       -1.61264       -0.69645
H          2.81431       -1.97505       -1.29968
C          5.75496       -0.71789        0.89731
H          6.59471       -0.38747        1.51139
C          4.93179       -2.11302       -0.90700
H          5.13625       -2.85762       -1.67843
C          5.96952       -1.65941       -0.10192
F          7.19639       -2.14106       -0.28692
C          1.67454        1.32385       -2.01538
H          1.46766        0.32394       -2.40521
C          2.06601        2.78932       -0.14779
H          2.18962        2.96719        0.92112
C          1.75236        2.40090       -2.89238
H          1.63463        2.27105       -3.96981
C          2.13125        3.88172       -1.01115
H          2.30681        4.89355       -0.64074
C          1.97260        3.67308       -2.37504
F          2.02982        4.71275       -3.20411
H         -0.92557        1.42931       -2.17043
H         -1.85885        0.07851       -2.78003
C         -3.07059        1.81220       -2.28519
H         -3.14795        2.55753       -1.47566
H         -4.00063        1.22296       -2.24229
C         -2.97116        2.52455       -3.62615
H         -2.06848        3.15450       -3.67791
H         -2.91656        1.80328       -4.45690
H         -3.84249        3.17297       -3.80304
C         -4.51006        0.13099        0.26258
H         -4.36838        1.19015        0.48950
C         -3.62764       -2.00694       -0.42570
H         -2.76727       -2.61007       -0.73326
C         -5.77549       -0.42998        0.40479
H         -6.63196        0.16116        0.73404
C         -4.89024       -2.57936       -0.29774
H         -5.06598       -3.63600       -0.50750
C         -5.94794       -1.78038        0.11886
F         -7.15605       -2.32012        0.25517
C         -1.99556        1.11786        2.15012
H         -2.36221        0.12389        2.41982
C         -1.19329        2.67286        0.49363
H         -0.91580        2.91972       -0.53244
C         -1.84044        2.07767        3.14322
H         -2.08690        1.86929        4.18589
C         -1.02448        3.64367        1.48068
H         -0.63869        4.63617        1.24147
C         -1.35079        3.33327        2.79337
F         -1.19022        4.25310        3.74148
