108
Cat632.ts34.5.log	Energy: -1732572.8173667
C          0.33735        0.67148       -3.32669
H          0.27028        1.64735       -3.81654
H          1.30295        0.17743       -3.49179
C         -0.84758       -0.15818       -3.34786
H         -1.78144        0.25560       -3.73994
H         -0.73040       -1.21734       -3.61204
H         -0.90065       -0.75078       -1.91010
Ir        -0.43743        0.75497       -1.32423
C          2.09916       -1.76713       -1.03763
C          2.95088        1.05818       -1.09551
C          1.74383       -0.09813        1.42950
C         -2.25567        1.62133        1.69169
C         -3.76570        0.61913       -0.64265
C         -2.25123       -1.07771        1.26436
P         -2.12493        0.47016        0.23197
P          1.58085       -0.05604       -0.44425
C         -0.47305        2.64855       -1.37110
O         -0.40747        3.79349       -1.52190
H          1.49984       -1.90417       -1.95077
H          1.70384       -2.47390       -0.29462
C          3.53836       -2.05766       -1.33575
C          4.39838       -2.60450       -0.37554
H          4.01608       -2.84490        0.61680
C          4.05739       -1.78493       -2.61016
H          3.39465       -1.38921       -3.38603
C          5.73856       -2.84130       -0.67073
H          6.38895       -3.26230        0.09974
C          5.39878       -2.01782       -2.90749
H          5.78017       -1.79248       -3.90631
C          6.24855       -2.54143       -1.93364
H          7.30126       -2.72364       -2.16207
H          3.34519        0.53495       -1.97745
H          2.40656        1.93487       -1.46798
C          4.08094        1.46984       -0.20547
C          5.30520        0.79344       -0.25472
H          5.42446       -0.03975       -0.94888
C          3.93194        2.56612        0.67124
C          2.67575        3.38927        0.67896
H          1.75954        2.78183        0.65796
H          2.61979        4.03610       -0.21285
H          2.63598        4.04198        1.56231
C          6.36441        1.15684        0.57153
H          7.30713        0.60739        0.51802
C          5.00228        2.90919        1.50547
H          4.88619        3.75101        2.19389
C          6.20875        2.21220        1.46743
H          7.02740        2.50215        2.13051
H          2.01156        0.93419        1.69751
H          0.70786       -0.24036        1.76586
C          2.66968       -1.06084        2.11345
C          3.97435       -0.66126        2.42700
H          4.28916        0.35369        2.18499
C          2.24736       -2.35804        2.48104
C          0.83084       -2.81951        2.29433
H          0.43170       -2.61350        1.29179
H          0.15784       -2.32056        3.01230
H          0.74033       -3.90081        2.46480
C          4.87555       -1.52790        3.03599
H          5.88971       -1.18553        3.25391
C          3.16844       -3.21963        3.08980
H          2.84301       -4.22686        3.36426
C          4.47624       -2.82255        3.35802
H          5.17333       -3.51911        3.82991
H         -1.48801        1.25645        2.39174
H         -3.23113        1.43936        2.16964
C         -2.03698        3.07419        1.41730
C         -3.02755        3.86805        0.82511
H         -3.99834        3.43262        0.57520
C         -0.81623        3.67234        1.74817
H         -0.03853        3.06566        2.21846
C         -2.79454        5.21354        0.55307
H         -3.57693        5.81416        0.08328
C         -0.58216        5.01810        1.48240
H          0.38118        5.46313        1.74190
C         -1.56909        5.79237        0.87696
H         -1.38411        6.84621        0.65735
H         -3.84647        1.70174       -0.83271
H         -3.56392        0.17273       -1.62343
C         -5.02258        0.06636       -0.04084
C         -5.63701        0.70813        1.04336
H         -5.19582        1.62465        1.44215
C         -5.63365       -1.08527       -0.58680
C         -5.06379       -1.79158       -1.78287
H         -4.02479       -2.11273       -1.61677
H         -5.06945       -1.14082       -2.67283
H         -5.65223       -2.68738       -2.02142
C         -6.81500        0.22553        1.60884
H         -7.27036        0.74910        2.45258
C         -6.81891       -1.55369       -0.00900
H         -7.29042       -2.44484       -0.43207
C         -7.40869       -0.91722        1.08017
H         -8.33384       -1.30965        1.50870
H         -1.27816       -1.11919        1.77961
H         -3.00173       -0.86093        2.03563
C         -2.54589       -2.39981        0.61724
C         -1.72666       -2.88706       -0.40859
H         -0.87928       -2.27818       -0.72974
C         -3.62017       -3.19606        1.07132
C         -4.47326       -2.78874        2.23774
H         -4.93260       -1.80011        2.09447
H         -3.88162       -2.74731        3.16729
H         -5.28731       -3.50898        2.39426
C         -1.97955       -4.10793       -1.02835
H         -1.32563       -4.45828       -1.83052
C         -3.86472       -4.41669        0.43176
H         -4.70381       -5.02815        0.77483
C         -3.06659       -4.87247       -0.61455
H         -3.28619       -5.82988       -1.09303
