96
Cat615.ts34.5.log	Energy: -1539005.0534358
C          2.81507       -1.25182       -1.75603
H          3.14136       -0.94272       -2.75315
H          3.59396       -1.18304       -0.99089
C          1.89831       -2.35984       -1.67260
H          1.48471       -2.78574       -2.59104
H          2.07271       -3.11292       -0.89519
H          0.82265       -1.89912       -0.56993
Ir         0.89735       -0.37831       -1.25708
C          1.49239       -0.36734        2.32220
O          3.00362        1.21887        0.90693
O          0.48833        1.84034        1.10834
C         -2.02908        1.50070       -1.03354
O         -2.41545       -1.09457       -1.52343
O         -1.53513       -0.53707        0.83431
P         -1.30438       -0.16185       -0.75152
P          1.49173        0.57516        0.72646
C          0.82307        0.73742       -2.79881
O          0.75608        1.44336       -3.71235
H          0.46239       -0.30382        2.70108
H          2.16909        0.14248        3.02423
C          1.88502       -1.79669        2.11682
C          3.23046       -2.17251        2.04066
H          4.00608       -1.41545        2.18235
C          0.90264       -2.77558        1.91941
H         -0.14948       -2.48071        1.94427
C          3.58705       -3.49587        1.78535
H          4.64298       -3.77146        1.72970
C          1.25637       -4.09958        1.66900
H          0.47483       -4.84876        1.51853
C          2.60133       -4.46470        1.60031
H          2.88065       -5.50210        1.40169
C          3.62005        1.90205       -0.17721
H          3.38398        1.37802       -1.11992
H          3.19924        2.92013       -0.25324
C          5.11115        1.96709        0.06568
H          5.55407        2.60849       -0.71628
H          5.29211        2.48111        1.02643
C          5.79634        0.60836        0.07283
H          5.64582        0.12365       -0.90734
H          5.28845       -0.03669        0.80812
C          7.28067        0.68602        0.38823
H          7.81595        1.30737       -0.34802
H          7.45545        1.13149        1.38099
H          7.74907       -0.30992        0.38395
C          0.61378        2.66677        2.25367
H         -0.41627        2.94076        2.54072
H          1.04807        2.10993        3.10071
C          1.42722        3.91486        1.97016
H          1.41330        4.54406        2.87787
H          2.47903        3.62400        1.81340
C          0.92277        4.70918        0.77412
H         -0.12374        5.01476        0.95532
H          0.89135        4.04308       -0.10402
C          1.77243        5.93120        0.46806
H          1.80052        6.62851        1.32100
H          2.81333        5.64458        0.24576
H          1.38873        6.48413       -0.40240
H         -1.74320        1.69204       -2.08171
H         -1.39898        2.16483       -0.42146
C         -3.49255        1.76886       -0.83094
C         -3.91069        2.72275        0.10490
H         -3.15961        3.26775        0.68447
C         -4.46977        1.10670       -1.58683
H         -4.15793        0.36239       -2.32036
C         -5.26365        2.98803        0.30700
H         -5.56604        3.73483        1.04527
C         -5.82246        1.36935       -1.38533
H         -6.56939        0.83686       -1.97926
C         -6.22684        2.30529       -0.43343
H         -7.28868        2.50856       -0.27603
C         -2.02824       -2.33483       -2.10694
H         -2.81030       -2.56869       -2.84634
H         -1.07142       -2.19287       -2.63984
C         -1.90013       -3.43992       -1.07895
H         -1.53015       -4.34518       -1.59239
H         -1.11038       -3.15589       -0.36237
C         -3.19030       -3.74404       -0.33297
H         -3.92751       -4.17169       -1.03529
H         -3.62252       -2.79396        0.01686
C         -2.98915       -4.68148        0.84583
H         -2.55127       -5.64228        0.52901
H         -2.30536       -4.23853        1.58876
H         -3.93737       -4.90260        1.35924
C         -2.41850        0.06636        1.76024
H         -1.97567       -0.12113        2.75367
H         -2.42500        1.15907        1.62135
C         -3.82559       -0.48755        1.70878
H         -4.24050       -0.32515        0.70130
H         -3.78308       -1.57923        1.86113
C         -4.73663        0.15021        2.74773
H         -4.70007        1.24725        2.63304
H         -4.35060       -0.06525        3.76034
C         -6.17821       -0.31669        2.63287
H         -6.59466       -0.05304        1.64780
H         -6.25561       -1.41015        2.74518
H         -6.81710        0.14382        3.40161
