56
Cat610.ts34.5.log	Energy: -1054467.8864306
C         -1.48086       -3.03142       -0.35406
H         -1.21497       -3.90552        0.24685
H         -2.54075       -2.75985       -0.27023
C         -0.85897       -2.91415       -1.65310
H         -0.08313       -3.62968       -1.93963
H         -1.49245       -2.63096       -2.50247
H         -0.41251       -1.40450       -1.75782
Ir        -0.00359       -1.48467       -0.11760
C         -2.96403        0.35150       -0.88233
C         -2.58438       -0.32378        1.90803
C         -1.15941        1.84006        0.79552
C          2.56993        0.71274        0.84457
C          3.32666       -1.19623       -1.18558
C          1.71238        1.02034       -1.91173
P          1.87970       -0.24119       -0.59537
P         -1.62855        0.10652        0.40309
C          0.86824       -2.26331        1.36266
O          1.43123       -2.69083        2.28216
H         -3.30404       -0.66505       -1.13739
H         -2.43238        0.73627       -1.76684
C         -4.11369        1.22958       -0.50682
C         -4.07886        2.60895       -0.75477
H         -3.21705        3.03704       -1.27437
C         -5.24106        0.70395        0.13986
H         -5.29481       -0.37150        0.33025
C         -5.12813        3.43659       -0.36097
H         -5.08053        4.50839       -0.56898
C         -6.29186        1.52843        0.53470
H         -7.16200        1.09529        1.03416
C         -6.23832        2.90001        0.28933
H         -7.06261        3.54736        0.59733
H         -3.02450       -1.32294        1.77960
H         -1.87356       -0.38017        2.74507
H         -3.37619        0.40557        2.13751
H         -2.03308        2.45830        1.05360
H         -0.46853        1.82171        1.65102
H         -0.63811        2.29336       -0.06027
H          2.73972       -0.04340        1.62711
H          1.73927        1.34400        1.19290
C          3.80022        1.52087        0.57939
C          3.70728        2.84649        0.13403
H          2.72079        3.30480        0.02083
C          5.07635        0.96393        0.73802
H          5.17003       -0.06326        1.10068
C          4.85055        3.58825       -0.15486
H          4.75454        4.62171       -0.49681
C          6.22157        1.70289        0.44988
H          7.20672        1.24965        0.58462
C          6.11321        3.01744       -0.00173
H          7.01082        3.59833       -0.22595
H          3.59874       -1.93311       -0.41624
H          3.01988       -1.74918       -2.08495
H          4.19231       -0.55666       -1.41654
H          1.40370        0.50583       -2.83305
H          0.92043        1.73232       -1.64071
H          2.65267        1.56371       -2.08768
