108
Cat617.ts34.5.log	Energy: -1544454.3132726
C         -1.16977       -2.48245       -2.00557
H         -0.81526       -3.50774       -1.86805
H         -2.26333       -2.40404       -2.03787
C         -0.41051       -1.63878       -2.89541
H          0.52172       -2.01458       -3.32744
H         -0.96552       -1.01327       -3.60718
H         -0.21974       -0.29335       -2.14356
Ir        -0.06318       -1.16481       -0.70058
C         -2.82646        0.84714       -1.46243
C         -3.44297       -1.25883        0.44209
C         -2.08541        1.17260        1.34636
C          2.07294        0.40053        1.61115
C          3.43044       -0.79112       -0.71440
C          1.84537        1.76554       -1.04170
P          1.85185        0.08428       -0.23225
P         -2.05433       -0.08282       -0.02679
C          0.58302       -2.43779        0.51738
O          1.03100       -3.15075        1.31932
H         -2.73097        0.14730       -2.30717
H         -2.13029        1.67400       -1.67091
C         -4.23826        1.32254       -1.34134
C         -4.55502        2.52013       -0.68431
H         -3.75061        3.15506       -0.30506
C         -5.29229        0.54932       -1.84718
H         -5.06530       -0.37570       -2.38459
C         -5.88014        2.90828       -0.50180
H         -6.10363        3.84264        0.01903
C         -6.61842        0.93368       -1.66529
H         -7.42318        0.30945       -2.06130
C         -6.91894        2.11110       -0.98175
H         -7.95838        2.41286       -0.83410
H         -3.85067       -1.53689       -0.54880
C         -4.60032       -0.67121        1.25767
H         -4.97829        0.25812        0.81190
H         -4.24000       -0.41268        2.26806
C         -5.73872       -1.67904        1.38985
H         -6.55675       -1.24223        1.98586
H         -6.15890       -1.87620        0.38674
C         -5.26171       -2.98662        2.00993
H         -6.08653       -3.71643        2.05789
H         -4.95317       -2.79776        3.05444
C         -4.08025       -3.56291        1.23846
H         -4.41913       -3.86808        0.23124
H         -3.70723       -4.47711        1.72828
C         -2.94672       -2.55327        1.09059
H         -2.51844       -2.33033        2.08382
H         -2.12496       -2.97518        0.49630
H         -3.13509        1.49563        1.46262
C         -1.23534        2.40028        1.02838
H         -1.56537        2.88159        0.09417
H         -0.20211        2.06519        0.84911
C         -1.24776        3.41342        2.16823
H         -0.60755        4.27425        1.91306
H         -2.27153        3.81211        2.28884
C         -0.79622        2.78098        3.47933
H         -0.85430        3.51311        4.30090
H          0.26790        2.49416        3.39755
C         -1.62282        1.54345        3.80676
H         -2.66420        1.84841        4.01645
H         -1.24924        1.06377        4.72589
C         -1.61929        0.53880        2.65882
H         -0.60381        0.13640        2.50944
H         -2.24928       -0.32489        2.91689
H          1.41914       -0.35800        2.06194
H          1.60171        1.37257        1.81342
C          3.42897        0.31454        2.24253
C          4.19022        1.45306        2.53528
H          3.78406        2.44361        2.31813
C          3.96290       -0.94107        2.56639
H          3.36325       -1.83847        2.38721
C          5.46254        1.34100        3.09169
H          6.04007        2.24302        3.30846
C          5.23708       -1.05614        3.11673
H          5.63581       -2.04534        3.35470
C          5.99723        0.08454        3.37241
H          6.99724       -0.00475        3.80306
H          3.52157       -1.52387        0.10922
C          4.71993        0.03287       -0.74105
H          4.84021        0.61580        0.18136
H          4.67343        0.75594       -1.57336
C          5.93418       -0.87069       -0.94069
H          6.85266       -0.26190       -0.97011
H          6.02989       -1.53302       -0.06173
C          5.80682       -1.71191       -2.20465
H          6.67288       -2.38572       -2.30965
H          5.82432       -1.04436       -3.08581
C          4.50645       -2.50764       -2.20738
H          4.53815       -3.25880       -1.39745
H          4.40081       -3.07189       -3.14846
C          3.29014       -1.61163       -1.99867
H          3.17703       -0.93694       -2.86508
H          2.36584       -2.20649       -1.93989
H          0.79615        2.06800       -0.88126
C          2.03197        1.66604       -2.55743
H          1.37204        0.88553       -2.96715
H          3.06584        1.35799       -2.78556
C          1.75293        3.00611       -3.22999
H          1.91436        2.92340       -4.31703
H          0.68696        3.26384       -3.09210
C          2.62075        4.11314       -2.64328
H          2.38415        5.08106       -3.11405
H          3.68034        3.90419       -2.87805
C          2.45263        4.20251       -1.13123
H          1.41837        4.51703       -0.89977
H          3.11361        4.97953       -0.71395
C          2.72603        2.86409       -0.44777
H          3.79097        2.60363       -0.55510
H          2.53526        2.96416        0.63092
