88
Cat626.ts34.5.log	Energy: -1724102.6547512
C         -1.00669       -2.87908       -2.84075
H         -0.93277       -3.94432       -2.60469
H         -2.01585       -2.57104       -3.13795
C          0.10727       -2.28139       -3.53862
H          1.02109       -2.86132       -3.69443
H         -0.10812       -1.60889       -4.37667
H          0.30494       -0.87196       -2.80409
Ir         0.01316       -1.68669       -1.36574
C         -3.46198       -0.98914       -0.93488
O         -1.59305       -0.24332        1.01079
O         -1.80131        1.19589       -1.12478
C          1.59591       -0.16606        1.39875
O          3.17218       -0.92929       -0.79515
O          1.65095        1.12944       -1.05444
P          1.64411       -0.40823       -0.44168
P         -1.71632       -0.40705       -0.64584
C          0.36303       -3.15825       -0.21313
O          0.55430       -4.02533        0.52563
H         -3.34145       -1.74156       -1.72939
H         -4.05980       -0.16669       -1.35259
C         -4.14713       -1.59225        0.25375
C         -5.34247       -1.04874        0.73583
H         -5.77929       -0.18325        0.23046
C         -3.59916       -2.70241        0.91064
H         -2.66307       -3.13524        0.54775
C         -5.97463       -1.59302        1.85269
H         -6.90817       -1.15523        2.21434
C         -4.22460       -3.24111        2.03141
H         -3.77873       -4.10074        2.53729
C         -5.41409       -2.68746        2.50848
H         -5.90395       -3.11244        3.38772
C         -2.05983        0.73618        1.84260
C         -3.05360        0.42561        2.77158
H         -3.46071       -0.58549        2.80026
C         -1.49689        2.01347        1.80498
H         -0.71539        2.23692        1.07929
C         -3.50584        1.41528        3.64235
H         -4.28772        1.17254        4.36605
C         -1.95954        2.99355        2.67858
H         -1.52132        3.99363        2.63681
C         -2.96985        2.70245        3.59481
H         -3.33238        3.47413        4.27750
C         -2.85934        2.02199       -1.37005
C         -3.90824        2.21570       -0.46659
H         -3.92255        1.68115        0.48370
C         -2.83589        2.72676       -2.57697
H         -2.00564        2.55371       -3.26464
C         -4.92798        3.11194       -0.78326
H         -5.74280        3.26051       -0.07058
C         -3.85582        3.62527       -2.87716
H         -3.82829        4.17446       -3.82138
C         -4.90856        3.82069       -1.98309
H         -5.70958        4.52397       -2.22037
H          0.69081       -0.72236        1.68570
H          1.38193        0.89537        1.59334
C          2.78576       -0.62263        2.18696
C          3.58153        0.29700        2.87861
H          3.32403        1.35845        2.84579
C          3.11695       -1.98256        2.25638
H          2.50048       -2.71963        1.73641
C          4.69372       -0.12472        3.60479
H          5.30341        0.60939        4.13704
C          4.22956       -2.40496        2.97929
H          4.47510       -3.46884        3.01821
C          5.02648       -1.47718        3.65173
H          5.89974       -1.81028        4.21751
C          4.30855       -0.17168       -0.92189
C          5.33211       -0.31173        0.01496
H          5.20738       -1.00904        0.84352
C          4.45126        0.69476       -2.00785
H          3.64083        0.77842       -2.73250
C          6.49277        0.44690       -0.12408
H          7.29108        0.33976        0.61420
C          5.61393        1.45088       -2.13155
H          5.71993        2.13756       -2.97465
C          6.63546        1.33604       -1.18881
H          7.54452        1.93319       -1.28871
C          1.81008        2.34246       -0.44623
C          2.93937        2.66343        0.30903
H          3.73840        1.93212        0.43851
C          0.79886        3.28503       -0.64521
H         -0.06791        2.99561       -1.24073
C          3.03720        3.93066        0.88248
H          3.92176        4.17937        1.47378
C          0.91266        4.54901       -0.07232
H          0.11693        5.28142       -0.22856
C          2.02860        4.87535        0.69913
H          2.11514        5.86592        1.15082
