94
Cat657.ts34.5.log	Energy: -2022391.4932568
C          0.55496       -3.86413        0.20203
H          0.15744       -4.55326       -0.54756
H          1.64415       -3.88974        0.30805
C         -0.22195       -3.66934        1.39897
H         -1.22230       -4.10545        1.47028
H          0.30889       -3.65431        2.35751
H         -0.20495       -2.10881        1.64175
Ir        -0.33989       -1.90587       -0.02946
C          2.39517       -0.74149       -1.90241
O          1.62811        0.81265        0.18396
O          2.87724       -1.39777        0.75554
C         -1.30731        1.07508        1.56879
O         -2.28055        0.53072       -0.99262
O         -3.22968       -0.65324        1.13023
P         -1.79528       -0.23340        0.38729
P          1.63563       -0.82146       -0.20254
C         -1.16074       -2.32664       -1.69406
O         -1.63686       -2.55230       -2.71936
H          3.06137       -1.61380       -1.97813
H          1.54045       -0.94311       -2.56259
C          3.10460        0.52096       -2.28471
C          4.49648        0.61321       -2.18476
H          5.06547       -0.25502       -1.84643
C          2.36775        1.63349       -2.74477
C          0.87742        1.56511       -2.89922
H          0.38327        1.26449       -1.96397
H          0.58200        0.82821       -3.66463
H          0.47155        2.54052       -3.20109
C          5.16726        1.79053       -2.50571
H          6.25463        1.83892       -2.41397
C          3.05742        2.80663       -3.06771
H          2.48966        3.67078       -3.42352
C          4.44345        2.89590       -2.94488
H          4.95528        3.82668       -3.20072
C          2.40248        1.46870        1.09475
C          3.22526        2.50713        0.65609
H          3.26597        2.73945       -0.40885
C          2.33750        1.14322        2.45195
H          1.69446        0.32438        2.77805
C          3.99383        3.21589        1.57524
H          4.64819        4.02939        1.25716
C          3.11144        1.84621        3.37183
H          3.08566        1.60773        4.43646
C          3.93142        2.87487        2.92187
F          4.67130        3.54988        3.80090
C          4.21826       -1.47900        0.49277
C          5.10118       -0.52108        0.99465
H          4.71619        0.31590        1.57540
C          4.70843       -2.57061       -0.22802
H          4.01215       -3.33416       -0.58148
C          6.46531       -0.63631        0.74557
H          7.17215        0.10379        1.12457
C          6.07217       -2.68586       -0.48695
H          6.47549       -3.52728       -1.05289
C          6.93514       -1.71066       -0.00125
F          8.24012       -1.81501       -0.24572
H         -1.19365        0.51707        2.51225
H         -0.29792        1.35650        1.24289
C         -2.21257        2.25848        1.73101
C         -3.33367        2.16627        2.56234
H         -3.51881        1.23120        3.09608
C         -1.95549        3.45758        1.03598
C         -0.73662        3.61547        0.17446
H         -0.66957        2.83108       -0.59274
H          0.18933        3.55763        0.77035
H         -0.74445        4.58548       -0.34037
C         -4.22085        3.22972        2.69307
H         -5.09372        3.13762        3.34361
C         -2.86304        4.51260        1.17247
H         -2.67819        5.44041        0.62475
C         -3.98883        4.40636        1.98503
H         -4.68150        5.24714        2.06816
C         -3.20446        1.51991       -1.23095
C         -4.41174        1.63158       -0.53971
H         -4.65107        0.93552        0.26171
C         -2.90052        2.40826       -2.26269
H         -1.96382        2.28158       -2.80660
C         -5.29034        2.66329       -0.85554
H         -6.22915        2.78460       -0.31308
C         -3.78110        3.43692       -2.58240
H         -3.56031        4.14689       -3.38129
C         -4.96457        3.55841       -1.86566
F         -5.80675        4.55101       -2.15732
C         -3.87584       -1.82692        0.83904
C         -4.12842       -2.71578        1.88237
H         -3.78939       -2.46071        2.88782
C         -4.28893       -2.12551       -0.45969
H         -4.08059       -1.42736       -1.27196
C         -4.79994       -3.90913        1.63168
H         -5.01319       -4.62238        2.42982
C         -4.95297       -3.32176       -0.71598
H         -5.27609       -3.58358       -1.72477
C         -5.20105       -4.19888        0.33237
F         -5.83812       -5.34385        0.08900
