52
Cat672.ts34.5.log	Energy: -1052030.8757534
C          1.80099       -2.37925        0.61724
H          1.93134       -3.13866       -0.15921
H          2.74855       -1.95792        0.97171
C          0.76403       -2.61585        1.59644
H          0.08560       -3.46320        1.46561
H          1.00079       -2.44001        2.65260
H          0.08893       -1.20067        1.77008
Ir         0.21410       -1.01447        0.10652
C          3.21683        0.89558        0.34210
O          1.13501        1.88437       -1.07792
O          0.96759        1.97824        1.48504
C         -2.07952        1.62729       -0.35297
O         -3.05937       -0.76455       -0.78427
O         -2.50380       -0.22023        1.67272
P         -1.87398       -0.11420        0.15632
P          1.37798        0.93296        0.25987
C          0.04254       -1.63069       -1.68546
O         -0.05775       -1.96653       -2.78545
H          3.63779        1.90246        0.49841
H          3.47034        0.30624        1.24085
C          3.81334        0.25268       -0.90552
H          3.59034        0.88985       -1.77708
H          3.29273       -0.69984       -1.09820
C          5.31106        0.02034       -0.79293
H          5.85618        0.96299       -0.62245
H          5.54798       -0.65399        0.04583
H          5.71451       -0.43617       -1.70944
C          1.54524        3.22520       -1.14818
H          1.01775        3.84759       -0.40575
H          2.63457        3.34140       -1.00202
H          1.29609        3.59538       -2.15288
C          1.82801        2.80412        2.22635
H          2.57396        2.22090        2.79236
H          2.36220        3.54116        1.60207
H          1.20790        3.35492        2.94840
H         -1.68890        2.21102        0.49995
H         -1.32532        1.75170       -1.14790
C         -3.43694        2.12852       -0.82979
H         -4.18137        2.06766       -0.02102
H         -3.80106        1.45905       -1.62386
C         -3.36023        3.55938       -1.34095
H         -3.01880        4.24995       -0.55268
H         -2.65127        3.64306       -2.18030
H         -4.34007        3.91490       -1.69490
C         -3.25163       -2.16155       -0.82662
H         -2.29371       -2.69612       -0.70583
H         -3.94225       -2.48503       -0.02981
H         -3.68697       -2.41283       -1.80377
C         -3.79377        0.24006        1.99569
H         -3.80787        1.33398        2.14020
H         -4.53027       -0.02586        1.21928
H         -4.08881       -0.23662        2.94144
