80
Cat688.ts34.5.log	Energy: -2686246.7455967
C         -0.31493       -3.92296       -1.14613
H          0.04464       -4.82761       -0.64849
H         -1.40764       -3.86066       -1.19387
C          0.43796       -3.44886       -2.27958
H          1.39071       -3.92227       -2.52980
H         -0.11064       -3.11238       -3.16634
H          0.51136       -1.84791       -2.05213
Ir         0.75880       -2.18186       -0.43450
C         -2.31439       -2.07011        1.31723
O         -0.75490        0.14953        1.33282
O         -2.12588       -0.38405       -0.78943
C          2.34716        0.62893        1.04762
O          3.81656       -1.00535       -0.57045
O          2.24093        0.61164       -1.64098
P          2.25879       -0.49390       -0.38451
P         -1.10426       -1.13545        0.31092
C          1.74296       -3.18004        0.86324
O          2.33585       -3.76903        1.65680
H         -3.14192       -1.39782        1.59999
H         -2.75131       -2.83772        0.65705
C         -1.67218       -2.71709        2.53743
H         -1.16601       -1.94290        3.13939
H         -0.87210       -3.39629        2.20191
C         -2.67752       -3.46879        3.39479
H         -3.46662       -2.79887        3.77283
H         -3.17305       -4.26740        2.82034
H         -2.19027       -3.93575        4.26378
C         -1.62619        1.14175        1.67946
C         -2.47143        1.01074        2.78232
H         -2.44010        0.10156        3.38476
C         -1.63426        2.31713        0.92822
H         -0.96305        2.40059        0.07506
C         -3.34654        2.04360        3.11110
H         -4.01691        1.95253        3.96708
C         -2.50526        3.35200        1.25063
H         -2.52718        4.26091        0.64711
C         -3.36713        3.20493        2.33849
Cl        -4.47045        4.47871        2.73759
C         -3.47947       -0.52179       -0.90766
C         -4.34251        0.42837       -0.35939
H         -3.93123        1.27452        0.19105
C         -3.99730       -1.59851       -1.63158
H         -3.30907       -2.32317       -2.07265
C         -5.71830        0.29429       -0.52310
H         -6.39903        1.03323       -0.09750
C         -5.37179       -1.73842       -1.79368
H         -5.78459       -2.57740       -2.35600
C         -6.22864       -0.79086       -1.23407
Cl        -7.94107       -0.96158       -1.43057
H          3.22075        1.29009        0.91996
H          1.44155        1.25308        0.97732
C          2.37089       -0.08750        2.39127
H          3.27250       -0.71797        2.46392
H          1.51055       -0.77303        2.43879
C          2.31985        0.88540        3.55755
H          3.17522        1.57963        3.54242
H          1.39888        1.48911        3.52392
H          2.33760        0.35422        4.52107
C          4.92056       -0.21504       -0.38149
C          5.74003       -0.47399        0.71730
H          5.47303       -1.28591        1.39633
C          5.24995        0.79851       -1.28310
H          4.60549        0.97444       -2.14426
C          6.88378        0.28929        0.92898
H          7.53281        0.09548        1.78433
C          6.39176        1.56621       -1.07081
H          6.66251        2.36167       -1.76700
C          7.20128        1.31212        0.03570
Cl         8.61997        2.27083        0.29901
C          1.28084        1.56937       -1.80625
C          1.56822        2.88652       -1.43829
H          2.54158        3.11555       -1.00037
C          0.04817        1.25745       -2.38118
H         -0.17185        0.22506       -2.64981
C          0.62339        3.88916       -1.63446
H          0.83515        4.91944       -1.34470
C         -0.90289        2.25535       -2.57269
H         -1.87925        2.01354       -2.99463
C         -0.61302        3.56465       -2.19290
Cl        -1.81768        4.79916       -2.37605
