108
Cat683.ts34.5.log	Energy: -1918727.7431841
C          0.61952       -3.21048       -0.38592
H          0.47541       -3.74099       -1.33203
H          1.61211       -3.36051        0.05443
C         -0.52194       -3.13276        0.50134
H         -1.49427       -3.50547        0.15980
H         -0.35887       -3.36118        1.56080
H         -0.55803       -1.70483        1.00369
Ir        -0.09984       -1.19910       -0.54627
C          1.43271        0.95020        1.96421
C          3.21217       -0.96997        0.94281
C          2.30015        1.16375       -0.88969
C         -2.39292        1.00340       -2.11680
C         -3.57905       -0.72357       -0.24062
C         -1.87690        1.46219        0.79783
P         -1.97883        0.18065       -0.52359
P          1.71118       -0.00953        0.41287
C          0.04419       -1.09001       -2.40738
O          0.15329       -1.01619       -3.56308
H          0.69469        1.72424        1.72624
H          0.93132        0.21765        2.61589
C          2.64714        1.53701        2.66475
H          3.22748        2.14602        1.95386
H          3.32062        0.72127        2.97466
C          2.26030        2.36985        3.87789
H          1.60153        3.20611        3.59368
H          1.70490        1.76463        4.61311
H          3.14317        2.78762        4.38718
C          4.53786       -0.75185        0.51621
O          4.78396        0.38836       -0.15300
C          5.98561        0.55786       -0.84173
H          5.87538        1.47829       -1.43049
H          6.84575        0.66901       -0.15711
H          6.18574       -0.28316       -1.52883
C          3.00351       -2.03422        1.84339
O          1.76832       -2.11223        2.39170
C          1.51218       -3.08021        3.36551
H          0.48370       -2.91122        3.71117
H          2.19707       -2.98624        4.22666
H          1.58584       -4.10463        2.96003
C          4.02162       -2.93674        2.17339
H          3.83296       -3.77257        2.84544
C          5.56236       -1.65785        0.82496
H          6.57556       -1.49057        0.46084
C          5.29008       -2.75130        1.63615
H          6.08805       -3.45669        1.87971
C          2.17056        2.56071       -0.87501
O          1.69333        3.15817        0.25017
C          2.19910        4.41160        0.60855
H          1.86893        4.60061        1.63892
H          3.30208        4.42863        0.56992
H          1.81614        5.22852       -0.02958
C          2.80104        0.57941       -2.07818
O          2.98581       -0.74979       -2.02755
C          3.35753       -1.45674       -3.17515
H          3.36981       -2.51632       -2.89007
H          4.36480       -1.16699       -3.52526
H          2.62776       -1.31200       -3.98838
C          3.11784        1.34260       -3.20246
H          3.48518        0.86522       -4.10998
C          2.50587        3.33737       -1.99406
H          2.38978        4.42077       -1.95815
C          2.96611        2.72562       -3.15042
H          3.21170        3.33162       -4.02567
H         -1.51671        1.59748       -2.40772
H         -2.45085        0.15101       -2.81309
C         -3.67939        1.81345       -2.15706
H         -3.68214        2.55180       -1.34066
H         -4.53290        1.14319       -1.96275
C         -3.87150        2.51816       -3.49129
H         -3.05287        3.23001       -3.68661
H         -3.88266        1.79875       -4.32598
H         -4.81800        3.08031       -3.52152
C         -4.60325       -0.34020        0.64784
O         -4.53218        0.90337        1.15637
C         -5.36372        1.28107        2.21162
H         -5.02284        2.27401        2.53288
H         -6.42229        1.34575        1.90273
H         -5.28578        0.58388        3.06472
C         -3.77132       -1.92335       -0.95901
O         -2.91148       -2.14638       -1.96430
C         -2.78606       -3.41296       -2.54065
H         -1.90671       -3.36328       -3.19566
H         -3.67230       -3.68013       -3.14318
H         -2.62154       -4.19383       -1.77826
C         -4.82000       -2.80196       -0.65731
H         -4.92995       -3.74061       -1.19984
C         -5.65970       -1.20838        0.95520
H         -6.42979       -0.91367        1.66734
C         -5.74274       -2.44072        0.31613
H         -6.56719       -3.11667        0.55585
C         -1.94638        1.03784        2.14003
O         -2.20706       -0.27192        2.31896
C         -2.14668       -0.83001        3.59632
H         -2.32522       -1.90606        3.47184
H         -1.15723       -0.67613        4.06213
H         -2.92259       -0.41799        4.26602
C         -1.53707        2.80536        0.56224
O         -1.37606        3.17509       -0.72323
C         -1.13723        4.51114       -1.04810
H         -1.06635        4.55556       -2.14260
H         -0.18942        4.87251       -0.61983
H         -1.95953        5.16808       -0.71321
C         -1.35690        3.70495        1.62380
H         -1.10685        4.74643        1.42681
C         -1.76133        1.92220        3.20516
H         -1.82650        1.57732        4.23630
C         -1.47535        3.25675        2.93240
H         -1.32721        3.95653        3.75822
