88
Cat689.ts34.5.log	Energy: -1442818.0593276
C         -0.04227       -3.22270       -1.25522
H          0.19484       -4.07206       -0.60779
H         -0.98264       -3.34575       -1.80379
C          1.06660       -2.59945       -1.93768
H          2.08873       -2.91194       -1.70776
H          0.94421       -2.34827       -2.99843
H          0.84830       -1.04975       -1.76692
Ir         0.30179       -1.37303       -0.19913
C         -2.17299        0.07556       -2.45083
C         -3.28174       -1.40417       -0.29490
C         -2.13689        1.21580        0.18708
C          0.97594        1.24757        2.10198
C          3.32077        0.07447        0.93465
C          1.64182        1.79205       -0.73207
P          1.53617        0.43029        0.53921
P         -1.76721       -0.39045       -0.70513
C          0.50717       -2.18558        1.48819
O          0.68788       -2.65574        2.53316
H         -3.19818        0.48143       -2.49747
H         -1.49609        0.90936       -2.70570
C         -1.99330       -1.04993       -3.45894
H         -2.65970       -1.89200       -3.20524
H         -0.96728       -1.44190       -3.38257
C         -2.26896       -0.60303       -4.88654
H         -3.29849       -0.22664       -4.99663
H         -1.58834        0.21019       -5.18585
H         -2.13631       -1.42970       -5.60107
H         -3.25468       -2.25175       -0.99697
H         -4.17523       -0.80588       -0.53516
C         -3.30905       -1.90114        1.11699
C         -3.99701       -1.21034        2.12208
H         -4.57456       -0.31855        1.86793
C         -2.60426       -3.05787        1.47433
H         -2.05998       -3.60580        0.70316
C         -3.97223       -1.65065        3.44457
H         -4.51935       -1.09567        4.21065
C         -2.57610       -3.50040        2.79342
H         -2.00776       -4.39711        3.04987
C         -3.25618       -2.79582        3.78568
H         -3.23056       -3.14112        4.82188
H         -1.17397        1.74046        0.22847
H         -2.37706        0.91877        1.22015
C         -3.17285        2.11646       -0.40865
C         -4.53817        1.97547       -0.12821
H         -4.86583        1.21730        0.58510
C         -2.78942        3.12431       -1.30589
H         -1.72826        3.26266       -1.53357
C         -5.48630        2.79759       -0.73451
H         -6.54482        2.66757       -0.49639
C         -3.73248        3.94899       -1.91284
H         -3.40530        4.72661       -2.60732
C         -5.08873        3.78549       -1.63337
H         -5.83154        4.43066       -2.10800
H          0.11793        1.88034        1.82415
H          0.54681        0.42770        2.70201
C          1.97041        2.05061        2.93520
H          2.50179        2.78146        2.30718
H          2.74086        1.37521        3.34073
C          1.28364        2.77930        4.08010
H          0.55312        3.51039        3.69800
H          0.74150        2.07911        4.73573
H          2.00946        3.32740        4.69973
H          3.29154       -0.40554        1.92490
H          3.86165        1.02694        1.04624
C          3.98176       -0.83398       -0.05321
C          4.60156       -0.33798       -1.20518
H          4.64958        0.74125       -1.37236
C          3.95517       -2.22125        0.14328
H          3.46857       -2.62363        1.03461
C          5.17106       -1.20020       -2.14197
H          5.64994       -0.79092       -3.03481
C          4.53453       -3.08432       -0.78323
H          4.51003       -4.16245       -0.60677
C          5.13933       -2.57719       -1.93398
H          5.58986       -3.25438       -2.66339
H          0.63471        1.84218       -1.17111
H          2.29719        1.38573       -1.51832
C          2.08798        3.13467       -0.24968
C          3.44319        3.48816       -0.21000
H          4.19208        2.79783       -0.60562
C          1.14956        4.05867        0.23161
H          0.08392        3.81647        0.18890
C          3.85079        4.70678        0.32884
H          4.91359        4.95909        0.35406
C          1.55306        5.27721        0.77079
H          0.80345        5.97851        1.14506
C          2.90791        5.60213        0.83143
H          3.22688        6.55591        1.25772
