94
Cat659.ts34.5.log	Energy: -2926705.1359678
C          0.44888       -3.90424        0.23093
H          0.00775       -4.59917       -0.48826
H          1.54034       -3.95355        0.29750
C         -0.27867       -3.66441        1.45017
H         -1.28617       -4.07344        1.56699
H          0.28691       -3.64172        2.38849
H         -0.21560       -2.10163        1.65653
Ir        -0.40703       -1.92961       -0.01286
C          2.28061       -0.86059       -2.01076
O          1.62709        0.74976        0.06504
O          2.84820       -1.47588        0.64118
C         -1.25282        1.10872        1.54948
O         -2.34651        0.51700       -0.95563
O         -3.21977       -0.59293        1.24029
P         -1.81210       -0.22025        0.42313
P          1.58244       -0.89362       -0.28349
C         -1.29187       -2.36590       -1.64053
O         -1.80757       -2.60131       -2.64398
H          2.92030       -1.75168       -2.09592
H          1.39742       -1.05024       -2.63619
C          3.00784        0.37704       -2.43935
C          4.40414        0.43635       -2.38752
H          4.96402       -0.44015       -2.05571
C          2.28313        1.49959       -2.89434
C          0.78731        1.46514       -3.00080
H          0.31581        1.18792       -2.04677
H          0.45069        0.72657       -3.74739
H          0.39525        2.44623       -3.30253
C          5.09211        1.59147       -2.75001
H          6.18280        1.61348       -2.69505
C          2.98975        2.64998       -3.25959
H          2.43158        3.52184       -3.61173
C          4.38088        2.70718       -3.18340
H          4.90613        3.62090       -3.47147
C          2.43461        1.40699        0.94199
C          3.25963        2.42507        0.46243
H          3.27173        2.64049       -0.60691
C          2.40714        1.10393        2.30548
H          1.76171        0.30148        2.66595
C          4.06902        3.13278        1.34533
H          4.72363        3.92595        0.98095
C          3.22151        1.80678        3.18874
H          3.21692        1.57368        4.25453
C          4.05228        2.81711        2.70432
Cl         5.07098        3.68913        3.80107
C          4.17720       -1.57808        0.33649
C          5.08862       -0.62692        0.79746
H          4.73667        0.21893        1.38630
C          4.62970       -2.68213       -0.38965
H          3.91418       -3.44301       -0.70898
C          6.44004       -0.75700        0.49586
H          7.15670       -0.01251        0.84572
C          5.98051       -2.81224       -0.70014
H          6.34019       -3.66639       -1.27576
C          6.88043       -1.84030       -0.26437
Cl         8.55997       -1.98721       -0.65879
H         -1.11257        0.57159        2.50151
H         -0.25181        1.36122        1.17779
C         -2.12882        2.31369        1.71658
C         -3.22111        2.26296        2.58886
H         -3.40242        1.34617        3.15460
C         -1.87576        3.49021        0.98229
C         -0.68048        3.60819        0.08215
H         -0.63699        2.79621       -0.65737
H          0.26064        3.56734        0.65546
H         -0.69745        4.55872       -0.46755
C         -4.08739        3.34363        2.71887
H         -4.93884        3.28357        3.40077
C         -2.76441        4.56139        1.11642
H         -2.58784        5.46909        0.53355
C         -3.86430        4.49498        1.96763
H         -4.54476        5.34621        2.04403
C         -3.24243        1.53520       -1.16649
C         -2.94195        2.41788       -2.20380
H         -2.03090        2.26039       -2.78222
C         -4.42196        1.68478       -0.43663
H         -4.66315        0.99051        0.36587
C         -3.78800        3.48631       -2.47944
H         -3.55332        4.19035       -3.27919
C         -5.26581        2.75602       -0.70867
H         -6.17528        2.89889       -0.12394
C         -4.94145        3.66005       -1.71743
Cl        -5.97683        5.01726       -2.01924
C         -3.91248       -1.75021        1.00736
C         -4.18836       -2.57958        2.09293
H         -3.83013       -2.29214        3.08296
C         -4.35170       -2.09298       -0.27154
H         -4.12951       -1.44198       -1.11854
C         -4.90673       -3.75602        1.90439
H         -5.13084       -4.41374        2.74562
C         -5.06282       -3.27333       -0.46497
H         -5.40145       -3.55653       -1.46250
C         -5.33753       -4.09993        0.62301
Cl        -6.22285       -5.56991        0.38348
