86
Cat642.ts34.5.log	Energy: -1300956.3298159
C         -1.29097       -2.90242        0.09599
H         -0.80645       -3.68486        0.68635
H         -2.36280       -2.79954        0.30274
C         -0.85157       -2.73662       -1.26462
H         -0.01354       -3.33833       -1.62805
H         -1.61977       -2.59181       -2.03670
H         -0.55331       -1.27277       -1.47645
Ir        -0.04775       -1.12821        0.14744
C         -2.99551        0.34633       -1.09767
C         -3.11265       -0.26784        1.77476
C         -1.64598        2.09984        0.84570
C          2.58452        1.18527        0.31956
C          3.43113       -1.54823       -0.34396
C          2.16410        0.13505       -2.40538
P          2.00911       -0.33742       -0.60846
P         -1.91199        0.29898        0.43340
C          0.76840       -1.34871        1.81401
O          1.31402       -1.40244        2.83882
H         -2.40226        0.92065       -1.82590
H         -2.98649       -0.69054       -1.46055
C         -4.39332        0.87381       -0.99844
C         -4.61498        2.25757       -0.96977
H         -3.76230        2.93216       -1.07516
C         -5.50291        0.00485       -0.90997
C         -5.35641       -1.48632       -1.03479
H         -4.70069       -1.91677       -0.26230
H         -4.92389       -1.76790       -2.00877
H         -6.33305       -1.98213       -0.95127
C         -5.88905        2.79051       -0.80202
H         -6.02943        3.87366       -0.77605
C         -6.77710        0.55715       -0.73615
H         -7.63539       -0.11620       -0.65928
C         -6.97837        1.93316       -0.66894
H         -7.98537        2.33293       -0.52910
H         -3.70976       -1.02503        1.23936
C         -2.40692       -0.98103        2.92365
H         -3.15320       -1.35792        3.64160
H         -1.80773       -1.82779        2.56667
H         -1.72959       -0.30972        3.47284
C         -4.07693        0.79099        2.30416
H         -4.62367        1.31374        1.50932
H         -4.82328        0.31188        2.95842
H         -3.55366        1.54292        2.91468
H         -2.64006        2.54307        1.02118
C         -0.81757        2.20434        2.12191
H         -0.59168        3.25892        2.34771
H         -1.33477        1.78034        2.99363
H          0.13426        1.66304        2.00618
C         -0.96613        2.84071       -0.29452
H         -1.57199        2.87102       -1.21189
H         -0.75561        3.88206       -0.00242
H         -0.01410        2.35611       -0.54822
H          1.91121        1.98426       -0.02292
H          2.29234        0.97699        1.35700
C          4.01518        1.61458        0.22664
C          4.45963        2.31459       -0.90301
H          3.73644        2.58383       -1.67701
C          4.93680        1.31401        1.25320
C          4.50802        0.66734        2.54083
H          3.97583       -0.28433        2.39594
H          3.81999        1.32035        3.10262
H          5.37532        0.46978        3.18534
C          5.79605        2.66718       -1.06351
H          6.11679        3.20584       -1.95825
C          6.27790        1.67151        1.07299
H          6.99579        1.43126        1.86215
C          6.71582        2.32869       -0.07407
H          7.77073        2.59002       -0.18545
H          3.66323       -1.37382        0.72084
C          2.99105       -3.00346       -0.46969
H          3.79911       -3.66833       -0.12462
H          2.08872       -3.19811        0.12659
H          2.76724       -3.27418       -1.51335
C          4.69775       -1.29270       -1.15746
H          5.06475       -0.26211       -1.07912
H          5.50177       -1.95653       -0.80071
H          4.54445       -1.52301       -2.22310
H          3.21452        0.44488       -2.53739
C          1.88949       -1.05893       -3.31294
H          2.02327       -0.76786       -4.36714
H          2.55868       -1.90645       -3.11429
H          0.85414       -1.41191       -3.19259
C          1.25387        1.29618       -2.77786
H          1.48045        2.21395       -2.21643
H          1.36204        1.53123       -3.84891
H          0.20104        1.03683       -2.58739
