76
Cat604.ts34.5.log	Energy: -1873377.9506890
C         -3.77867       -0.31203       -1.70858
H         -4.22843       -1.24915       -2.04798
H         -4.46930        0.31961       -1.14067
C         -2.86046        0.33823       -2.61308
H         -2.57263       -0.16639       -3.53959
H         -2.95077        1.42340       -2.74716
H         -1.65749        0.79181       -1.69761
Ir        -1.81797       -0.67103       -0.88373
O         -1.98580        2.02370        1.35715
C         -3.94800        0.31611        1.76032
C         -1.23586       -0.25335        2.57701
O          1.15220       -0.65015        0.60393
C          1.20436       -2.38246       -1.50739
C          1.28972        0.49651       -1.91770
P          0.45703       -0.81019       -0.93078
P         -2.22218        0.34249        1.14905
C         -1.99740       -2.55404       -0.83524
O         -2.06213       -3.70801       -0.77844
C         -0.97910        2.68103        0.73659
C         -1.18110        3.24355       -0.52803
H         -2.15741        3.13022       -1.00150
C          0.25878        2.83663        1.36721
H          0.40791        2.40349        2.35764
C         -0.16032        3.94619       -1.16099
H         -0.31175        4.38295       -2.14932
C          1.28089        3.54826        0.74519
H          2.24266        3.69195        1.24088
C          1.07051        4.08963       -0.52210
Cl         2.35541        4.95122       -1.30837
H         -4.53770        0.83666        0.98736
H         -4.25834       -0.74182        1.70952
C         -4.21758        0.92086        3.13112
H         -3.78668        1.93445        3.16526
H         -3.69306        0.33572        3.90474
C         -5.70187        0.97354        3.46015
H         -6.25098        1.58763        2.72850
H         -6.15136       -0.03240        3.44862
H         -5.87791        1.40640        4.45672
H         -0.19377       -0.02031        2.31147
H         -1.50421        0.34269        3.46435
C         -1.36676       -1.74772        2.83470
H         -1.21628       -2.28485        1.88404
H         -2.39570       -1.98626        3.15670
C         -0.37310       -2.24698        3.87215
H          0.66196       -2.06157        3.54293
H         -0.50794       -1.73779        4.83993
H         -0.48252       -3.32836        4.04604
C          2.46142       -0.75875        0.95574
C          3.25551        0.38741        1.04550
H          2.81833        1.35133        0.78181
C          2.99561       -2.00038        1.30905
H          2.36015       -2.88638        1.26315
C          4.57939        0.29333        1.46162
H          5.20645        1.18378        1.52961
C          4.32029       -2.10049        1.72488
H          4.74518       -3.06679        2.00110
C          5.10926       -0.95316        1.79491
Cl         6.75878       -1.07492        2.31032
H          2.30009       -2.33439       -1.39373
H          0.83895       -3.15791       -0.81305
C          0.81762       -2.74346       -2.93758
H          1.22125       -1.98816       -3.63357
H         -0.27884       -2.68660       -3.03518
C          1.30615       -4.12630       -3.33857
H          2.40226       -4.20704       -3.26078
H          0.86696       -4.90036       -2.68964
H          1.02606       -4.36346       -4.37597
H          0.64044        0.62431       -2.80020
H          1.15858        1.42002       -1.32834
C          2.73962        0.31370       -2.35150
H          2.82447       -0.57974       -2.99162
H          3.38117        0.12098       -1.47863
C          3.25915        1.52887       -3.10560
H          2.65755        1.72468       -4.00790
H          3.21708        2.43647       -2.48343
H          4.30264        1.38593       -3.42459
