94
Cat655.ts34.5.log	Energy: -1773417.2401109
C          0.63876       -3.84091        0.14442
H          0.29539       -4.51040       -0.64853
H          1.71996       -3.85777        0.31476
C         -0.21178       -3.69220        1.29764
H         -1.21001       -4.13909        1.29423
H          0.26009       -3.70313        2.28670
H         -0.22751       -2.14305        1.58838
Ir        -0.26668       -1.88739       -0.08125
C          2.54972       -0.62071       -1.75310
O          1.64915        0.85310        0.32534
O          2.89398       -1.36037        0.90312
C         -1.37905        1.03233        1.53590
O         -2.20358        0.53875       -1.07955
O         -3.23406       -0.72849        0.96545
P         -1.77859       -0.25664        0.30165
P          1.69800       -0.76926       -0.10133
C         -0.97258       -2.25877       -1.80794
O         -1.37680       -2.45276       -2.87026
H          3.24509       -1.47107       -1.81302
H          1.74093       -0.82507       -2.46794
C          3.24341        0.67200       -2.05501
C          4.62338        0.79941       -1.86761
H          5.19749       -0.06231       -1.52089
C          2.50196        1.77855       -2.52205
C          1.02561        1.67399       -2.76496
H          0.48784        1.32700       -1.87074
H          0.79601        0.95614       -3.57007
H          0.60754        2.64739       -3.05639
C          5.27583        2.00554       -2.11024
H          6.35364        2.08147       -1.94965
C          3.17378        2.98066       -2.76526
H          2.60189        3.84035       -3.12538
C          4.54687        3.10434       -2.55688
H          5.04468        4.05752       -2.75074
C          2.32042        1.49194        1.32432
C          3.12717        2.58097        0.99183
H          3.23370        2.85803       -0.05804
C          2.16904        1.09699        2.65584
H          1.53901        0.23803        2.89236
C          3.79423        3.26919        2.00237
H          4.43085        4.11787        1.74108
C          2.84762        1.79038        3.65580
H          2.73715        1.47649        4.69643
C          3.66278        2.87599        3.33489
H          4.19247        3.41599        4.12264
C          4.25042       -1.39267        0.72020
C          5.06930       -0.42767        1.30838
H          4.62223        0.37258        1.89702
C          4.81198       -2.44107       -0.01282
H          4.15719       -3.20869       -0.43150
C          6.44808       -0.49746        1.12486
H          7.08466        0.26453        1.58062
C          6.19229       -2.49675       -0.19618
H          6.62586       -3.31349       -0.77802
C          7.01517       -1.52059        0.36493
H          8.09666       -1.56400        0.21946
H         -1.29647        0.45624        2.47150
H         -0.36270        1.34566        1.26608
C         -2.32177        2.18829        1.67695
C         -3.47850        2.04987        2.45106
H         -3.66319        1.09964        2.95748
C         -2.06547        3.40645        1.01576
C         -0.81399        3.61113        0.21291
H         -0.70262        2.85148       -0.57375
H          0.08741        3.55087        0.84506
H         -0.81849        4.59555       -0.27386
C         -4.40028        3.08609        2.55725
H         -5.30106        2.95759        3.16204
C         -3.00711        4.43396        1.12755
H         -2.82276        5.37564        0.60395
C         -4.16697        4.28189        1.88250
H         -4.88625        5.10182        1.94688
C         -3.15283        1.48965       -1.36435
C         -4.39401        1.55681       -0.73084
H         -4.64241        0.85490        0.06261
C         -2.83031        2.38399       -2.38600
H         -1.86232        2.28783       -2.87970
C         -5.29134        2.55438       -1.10435
H         -6.25436        2.61612       -0.59252
C         -3.73954        3.37200       -2.75183
H         -3.47937        4.07295       -3.54869
C         -4.97241        3.46712       -2.10780
H         -5.68339        4.24641       -2.39013
C         -3.84267       -1.90773        0.62246
C         -4.15107       -2.80499        1.64354
H         -3.88079       -2.54829        2.66949
C         -4.16470       -2.19913       -0.70290
H         -3.91449       -1.48869       -1.49252
C         -4.78849       -4.00415        1.33403
H         -5.03169       -4.70763        2.13402
C         -4.79466       -3.40522       -1.00164
H         -5.03687       -3.63732       -2.04117
C         -5.10892       -4.31012        0.01116
H         -5.60342       -5.25364       -0.22965
