96
Cat622.ts34.5.log	Energy: -1633972.8680376
C         -0.76811       -3.40544       -1.36426
H         -0.52164       -4.36761       -0.90594
H         -1.81712       -3.32402       -1.67008
C          0.22309       -2.82314       -2.24060
H          1.20881       -3.28906       -2.33280
H         -0.12376       -2.41698       -3.19986
H          0.24037       -1.32205       -1.85969
Ir         0.10521       -1.78520       -0.24408
C         -2.16592        0.43325       -1.67716
C         -3.38056       -1.19440        0.47055
C         -1.69280        0.89346        1.23502
C          2.33747        0.15045        1.79674
C          3.37969       -0.68240       -0.74895
C          1.40831        1.39343       -0.70068
P          1.79503       -0.23120        0.05341
P         -1.79707       -0.41560       -0.04987
C          0.52307       -2.75375        1.31954
O          0.78989       -3.28280        2.31649
H         -2.11475       -0.42045       -2.37251
H         -1.25502        1.02563       -1.85952
C         -3.39579        1.24051       -1.95961
C         -3.31831        2.63311       -2.10318
H         -2.34543        3.12250       -2.00077
C         -4.64159        0.62487       -2.13965
H         -4.71936       -0.46164       -2.05842
C         -4.45399        3.39156       -2.37901
H         -4.36938        4.47605       -2.48522
C         -5.77861        1.38069       -2.41536
H         -6.74101        0.87972       -2.54590
C         -5.69196        2.76780       -2.52833
H         -6.58454        3.35961       -2.74455
C         -3.45883       -2.58064        0.61795
H         -2.56770       -3.18035        0.42194
C         -4.51004       -0.42423        0.78757
H         -4.46747        0.66463        0.72164
C         -4.64416       -3.18590        1.03436
H         -4.68149       -4.27332        1.14407
C         -5.68857       -1.03287        1.19970
H         -6.55746       -0.41211        1.43717
C         -5.78027       -2.42665        1.32553
C         -7.05540       -3.06966        1.78609
H         -6.99445       -4.16592        1.74074
H         -7.28658       -2.78874        2.82646
H         -7.90986       -2.74971        1.16933
C         -2.17728        2.19669        1.10346
H         -2.67291        2.51071        0.18604
C         -1.08425        0.53268        2.44582
H         -0.70248       -0.48552        2.56184
C         -2.02038        3.12172        2.13589
H         -2.39534        4.14042        2.00064
C         -0.94011        1.45463        3.47549
H         -0.45601        1.14718        4.40716
C         -1.39362        2.77491        3.33548
C         -1.22486        3.76553        4.44964
H         -1.84359        3.49077        5.31939
H         -0.18083        3.80299        4.79756
H         -1.51688        4.77816        4.13811
H          2.33201       -0.83170        2.29263
H          1.52563        0.73571        2.25228
C          3.67183        0.81224        1.93483
C          3.81165        2.20537        1.90091
H          2.92402        2.83585        1.82117
C          4.82964        0.03076        2.04441
H          4.73793       -1.05829        2.06328
C          5.07188        2.79756        1.95834
H          5.15906        3.88652        1.92855
C          6.08901        0.61962        2.10455
H          6.97781       -0.01092        2.18364
C          6.21600        2.00724        2.05595
H          7.20384        2.47214        2.09966
C          3.69647       -2.03563       -0.88939
H          2.95115       -2.77921       -0.58886
C          4.32809        0.27559       -1.13193
H          4.11092        1.33922       -1.01110
C          4.93546       -2.42359       -1.39535
H          5.16861       -3.48787       -1.49048
C          5.55698       -0.11854       -1.64693
H          6.28666        0.64411       -1.93320
C          5.88491       -1.47399       -1.78647
C          7.20838       -1.88692       -2.36022
H          8.02506       -1.25451       -1.98092
H          7.44398       -2.93350       -2.12073
H          7.20823       -1.79078       -3.45886
C          1.47399        1.51453       -2.09837
H          1.86801        0.68641       -2.69361
C          0.87996        2.46023        0.02760
H          0.77033        2.39589        1.11148
C          1.03201        2.66546       -2.73663
H          1.09065        2.73059       -3.82685
C          0.43852        3.61538       -0.61923
H          0.01810        4.42847       -0.02143
C          0.50315        3.74201       -2.00777
C          0.01771        4.97698       -2.70834
H         -0.42390        5.69378       -2.00187
H          0.84087        5.48676       -3.23435
H         -0.74416        4.73240       -3.46588
