96
Cat606.ts34.5.log	Energy: -2444343.1063904
C         -1.09598       -3.90199       -0.51037
H         -0.81465       -4.68774        0.19625
H         -2.17515       -3.81770       -0.67681
C         -0.21262       -3.68114       -1.62706
H          0.74040       -4.21631       -1.67593
H         -0.66442       -3.53510       -2.61582
H         -0.05032       -2.13631       -1.72367
Ir        -0.03786       -2.08377       -0.03754
O         -2.18770        0.20284       -1.41645
C         -3.48785       -1.63280        0.03689
C         -2.06583        0.50009        1.33498
O          2.14756       -0.00586        1.34984
C          3.37808       -1.77165       -0.24507
C          2.02232        0.51295       -1.37768
P          1.84373       -0.79120       -0.11614
P         -1.90278       -0.72517       -0.01360
C          0.39389       -2.66698        1.71337
O          0.59683       -3.01764        2.79536
C         -2.53765        1.50332       -1.55125
C         -3.62669        1.82209       -2.36897
H         -4.19321        1.01314       -2.83260
C         -1.80110        2.53488       -0.96034
H         -0.94036        2.29333       -0.33914
C         -3.98896        3.14794       -2.57874
H         -4.83995        3.39858       -3.21434
C         -2.16664        3.86311       -1.15712
H         -1.59697        4.66723       -0.68895
C         -3.26251        4.16637       -1.96145
Cl        -3.72625        5.82180       -2.20151
C         -4.32073       -1.75199       -1.07214
H         -4.06590       -1.19820       -1.97718
C         -3.78666       -2.36988        1.19935
O         -2.91712       -2.22310        2.21468
C         -3.00783       -3.04464        3.34411
H         -3.92004       -2.83450        3.92968
H         -2.12449       -2.82536        3.95635
H         -2.99401       -4.11313        3.06796
C         -5.45254       -2.56848       -1.03563
H         -6.09737       -2.65002       -1.91327
C         -4.91742       -3.18892        1.24205
H         -5.15601       -3.75571        2.14262
C         -5.74758       -3.27944        0.12332
H         -6.63055       -3.92186        0.16466
C         -0.97839        0.69466        2.18613
H         -0.08395        0.08781        2.02831
C         -3.23286        1.27024        1.52943
O         -4.25235        1.03765        0.68865
C         -5.37515        1.87338        0.70302
H         -5.91892        1.81092        1.66134
H         -6.03162        1.52035       -0.10173
H         -5.09821        2.92329        0.50586
C         -1.01613        1.64582        3.20430
H         -0.14771        1.78917        3.84981
C         -3.27226        2.22993        2.54574
H         -4.16285        2.84088        2.69361
C         -2.16491        2.41209        3.37376
H         -2.20942        3.16873        4.16129
C          2.59887        1.25312        1.57714
C          1.91124        2.37303        1.10245
H          1.00771        2.23727        0.51025
C          3.74139        1.42708        2.36274
H          4.26707        0.54674        2.73485
C          2.37944        3.65365        1.38077
H          1.84913        4.52965        1.00443
C          4.20656        2.70466        2.65372
H          5.09954        2.84611        3.26481
C          3.52928        3.81553        2.15023
Cl         4.12329        5.41055        2.48852
C          4.17557       -2.04455        0.86303
H          3.90426       -1.60465        1.82404
C          3.69365       -2.36726       -1.48044
O          2.85114       -2.08139       -2.49409
C          3.08200       -2.61671       -3.76456
H          4.05538       -2.29355       -4.17318
H          2.28115       -2.23735       -4.41174
H          3.04568       -3.72041       -3.75635
C          5.29088       -2.87563        0.75465
H          5.90656       -3.08146        1.63273
C          4.81229       -3.19461       -1.59667
H          5.06775       -3.65180       -2.55310
C          5.60744       -3.44182       -0.47603
H          6.47958       -4.09269       -0.57408
C          0.92472        0.81111       -2.18448
H          0.00541        0.23669       -2.04666
C          3.21939        1.24134       -1.54873
O          4.24521        0.90057       -0.75511
C          5.40806        1.68089       -0.73860
H          5.92612        1.66119       -1.71277
H          6.06312        1.23928        0.02217
H          5.18743        2.72553       -0.46026
C          0.98369        1.82785       -3.13635
H          0.10713        2.05664       -3.74510
C          3.27925        2.26629       -2.49766
H          4.19291        2.84673       -2.62615
C          2.16212        2.55290       -3.28220
H          2.22215        3.36063       -4.01609
