100
Cat675.ts34.5.log	Energy: -1353301.3949223
C         -1.12846       -2.90691       -0.89535
H         -1.05917       -3.77306       -0.23064
H         -2.13155       -2.76709       -1.31251
C         -0.00123       -2.66343       -1.76331
H          0.89403       -3.28460       -1.66904
H         -0.21124       -2.41704       -2.81233
H          0.26521       -1.13415       -1.66705
Ir        -0.12072       -1.21660       -0.02139
C         -1.88994        1.27514       -1.99282
C         -3.55292       -0.50215       -0.48669
C         -2.16729        1.70174        0.84516
C          1.89245        1.09179        1.93504
C          3.35915       -0.86849        0.47839
C          1.97247        1.43570       -0.93232
P          1.76773        0.10851        0.37161
P         -1.87895        0.32703       -0.39528
C         -0.09824       -2.02327        1.67665
O         -0.13160       -2.56440        2.70269
H         -2.69422        2.03155       -1.99107
H         -0.93830        1.83027       -2.02195
C         -1.98832        0.39282       -3.22893
H         -2.96040       -0.12820       -3.24253
H         -1.22208       -0.39718       -3.16056
C         -1.81560        1.16928       -4.52534
H         -2.57898        1.95752       -4.62539
H         -0.82942        1.65862       -4.56801
H         -1.89854        0.51175       -5.40419
H         -3.40751       -1.21008       -1.32365
C         -4.74643        0.38232       -0.84801
H         -4.54286        0.97708       -1.75209
H         -4.93368        1.10505       -0.03393
C         -6.00385       -0.45911       -1.06299
H         -6.86096        0.19509       -1.29301
H         -5.85629       -1.09986       -1.95142
C         -6.31257       -1.33872        0.14316
H         -7.19432       -1.96888       -0.05777
H         -6.58100       -0.69415        1.00014
C         -5.11265       -2.19808        0.52582
H         -4.91043       -2.92740       -0.27968
H         -5.33418       -2.78887        1.42942
C         -3.86886       -1.34492        0.74897
H         -4.05007       -0.67639        1.60875
H         -2.99835       -1.96582        1.00935
H         -3.23501        1.97327        0.75289
C         -1.35072        2.96361        0.55454
H         -1.57773        3.35467       -0.44804
H         -0.27649        2.70953        0.55184
C         -1.60811        4.05454        1.59046
H         -0.98574        4.93694        1.36767
H         -2.65860        4.38718        1.50522
C         -1.35375        3.56424        3.00986
H         -1.58661        4.35743        3.73879
H         -0.27791        3.34268        3.12938
C         -2.16020        2.30659        3.30819
H         -3.23596        2.56048        3.32021
H         -1.92162        1.92585        4.31479
C         -1.90762        1.21684        2.27196
H         -0.86395        0.87091        2.32920
H         -2.51477        0.32879        2.49750
H          2.86475        1.61076        1.94477
H          1.12478        1.87866        1.86756
C          1.71336        0.31010        3.22871
H          2.44075       -0.51719        3.27572
H          0.72418       -0.16954        3.23965
C          1.86820        1.18958        4.46015
H          2.86308        1.66212        4.49792
H          1.11920        1.99773        4.46915
H          1.73859        0.60782        5.38514
H          3.25166       -1.32264        1.48264
C          4.66253       -0.06837        0.46831
H          4.63078        0.75403        1.19997
H          4.79688        0.39782       -0.52277
C          5.86376       -0.96703        0.75368
H          6.79338       -0.37553        0.71862
H          5.78316       -1.35965        1.78352
C          5.93348       -2.13311       -0.22504
H          6.78631       -2.78804        0.01688
H          6.12172       -1.74065       -1.24127
C          4.63166       -2.92605       -0.22756
H          4.49984       -3.41000        0.75722
H          4.67745       -3.74084       -0.96847
C          3.42544       -2.03555       -0.50572
H          3.48048       -1.65400       -1.53993
H          2.48813       -2.60594       -0.43076
H          0.92535        1.77320       -1.03161
C          2.37410        0.86305       -2.29204
H          1.74719       -0.01098       -2.52911
H          3.41642        0.50315       -2.24736
C          2.25872        1.91380       -3.39102
H          2.57432        1.48735       -4.35703
H          1.19656        2.19530       -3.50829
C          3.07431        3.15772       -3.06110
H          2.94855        3.92249       -3.84466
H          4.14788        2.89493       -3.05318
C          2.68810        3.72158       -1.69931
H          1.64396        4.08261       -1.73883
H          3.30931        4.59821       -1.45346
C          2.80647        2.67378       -0.59404
H          3.86587        2.39807       -0.46618
H          2.48043        3.11520        0.35931
