102
Cat652.ts34.5.log	Energy: -1683265.9094598
C         -1.33662       -3.24310       -0.81642
H         -1.09584       -4.14947       -0.25332
H         -2.41464       -3.06149       -0.90141
C         -0.51008       -2.94984       -1.96259
H          0.37097       -3.56883       -2.15455
H         -1.00699       -2.63999       -2.89124
H         -0.20725       -1.43459       -1.85330
Ir        -0.06508       -1.62502       -0.18102
C         -2.80539       -0.00069       -1.57181
C         -3.15643       -0.55736        1.28402
C         -1.40556        1.62411        0.50748
C          2.11534        0.61724        1.34348
C          3.34441       -1.61770       -0.24246
C          2.25786        0.76364       -1.56184
P          1.94421       -0.43110       -0.19909
P         -1.85227       -0.09557        0.05209
C          0.50253       -2.41977        1.43169
O          0.86358       -2.85813        2.44170
H         -2.11054        0.48804       -2.27186
H         -2.82132       -1.05895       -1.87193
C         -4.17697        0.59523       -1.67299
C         -4.33079        1.93504       -2.05459
H         -3.44530        2.52221       -2.30479
C         -5.33293       -0.17298       -1.40857
C         -5.26487       -1.64603       -1.12672
H         -4.71093       -1.86915       -0.20432
H         -4.76398       -2.18666       -1.94674
H         -6.27352       -2.06754       -1.02144
C         -5.58040        2.54320       -2.11174
H         -5.66450        3.59234       -2.40426
C         -6.58140        0.45753       -1.46051
H         -7.47469       -0.13505       -1.24473
C         -6.71505        1.80294       -1.79226
H         -7.70524        2.26374       -1.82225
C         -3.07389       -1.86654        1.78072
H         -2.22853       -2.48020        1.46480
C         -4.21261        0.27841        1.71812
C         -4.35513        1.73436        1.38410
H         -3.94054        1.99949        0.40964
H         -3.83128        2.35094        2.13356
H         -5.41498        2.02529        1.39059
C         -4.02691       -2.38551        2.64937
H         -3.93315       -3.41114        3.01315
C         -5.16885       -0.27242        2.58468
H         -5.99678        0.36334        2.91057
C         -5.09398       -1.58289        3.04296
H         -5.86289       -1.97038        3.71600
C         -1.29770        2.61779       -0.47470
H         -1.52899        2.38040       -1.51216
C         -1.04288        1.93921        1.84047
C         -1.05518        0.92721        2.95055
H         -0.70295       -0.05764        2.60683
H         -2.06844        0.77349        3.35278
H         -0.41025        1.25914        3.77637
C         -0.89719        3.91370       -0.16546
H         -0.82639        4.66340       -0.95684
C         -0.64291        3.25012        2.12845
H         -0.35780        3.49231        3.15578
C         -0.58160        4.23812        1.15059
H         -0.26022        5.24836        1.41305
H          1.08286        0.98137        1.42708
H          2.25066       -0.08363        2.17833
C          3.03014        1.80536        1.40262
C          2.66273        2.93810        0.66147
H          1.73636        2.91173        0.08484
C          4.19896        1.85719        2.19112
C          4.65450        0.70990        3.04656
H          3.82220        0.23538        3.58816
H          5.38504        1.05039        3.79330
H          5.14140       -0.07417        2.44507
C          3.44423        4.08695        0.64564
H          3.13234        4.94775        0.04969
C          4.97093        3.02600        2.16864
H          5.87622        3.06668        2.78089
C          4.61514        4.12877        1.39824
H          5.24244        5.02351        1.40178
C          3.93797       -2.01393        0.96153
H          3.60529       -1.57400        1.90036
C          3.72810       -2.25902       -1.44325
C          3.09338       -1.95924       -2.76982
H          3.46725       -1.02024       -3.20663
H          2.00349       -1.84944       -2.67426
H          3.29949       -2.76841       -3.48437
C          4.93349       -2.98495        0.99897
H          5.37599       -3.27229        1.95555
C          4.73535       -3.22885       -1.38239
H          5.03803       -3.72246       -2.31026
C          5.34670       -3.58839       -0.18458
H          6.12845       -4.35143       -0.17600
C          1.13311        1.16789       -2.28818
H          0.17917        0.69807       -2.04158
C          3.52042        1.32316       -1.86728
C          4.80407        0.93175       -1.19722
H          5.23679        0.03502       -1.66976
H          4.67370        0.69829       -0.13605
H          5.53742        1.74619       -1.27557
C          1.21461        2.12215       -3.29616
H          0.31775        2.42130       -3.84409
C          3.58026        2.27961       -2.88962
H          4.55067        2.72307       -3.12824
C          2.45186        2.68444       -3.59595
H          2.54291        3.43773       -4.38242
