86
Cat662.ts34.5.log	Energy: -1300965.0080523
C          0.86850       -3.42709        0.19957
H          0.39627       -4.18526       -0.43126
H          1.96063       -3.42027        0.12048
C          0.28586       -3.20407        1.50087
H         -0.64115       -3.71885        1.76926
H          0.96334       -3.10857        2.35802
H          0.21849       -1.63034        1.66162
Ir        -0.18117       -1.55547        0.02089
C          2.56705        0.46359        1.08403
C          3.05449       -1.18587       -1.32803
C          1.46755        1.20986       -1.49646
C         -2.32497        1.07800       -0.95987
C         -3.30375       -0.45985        1.31173
C         -1.17477        1.46344        1.62943
P         -1.73001        0.09679        0.51763
P          1.72872       -0.26814       -0.42159
C         -1.19936       -2.05833       -1.48032
O         -1.84477       -2.30755       -2.41368
H          1.74968        1.01787        1.56945
H          2.75800       -0.40504        1.73080
C          3.77199        1.34306        0.94485
C          3.60027        2.69259        0.60977
H          2.58533        3.08129        0.49125
C          5.08119        0.85372        1.14523
C          5.33561       -0.57001        1.55014
H          4.97735       -1.28384        0.79283
H          4.82555       -0.82246        2.49382
H          6.40956       -0.75037        1.69397
C          4.68489        3.54617        0.43031
H          4.51919        4.59276        0.16417
C          6.16095        1.72449        0.96444
H          7.17450        1.34345        1.11761
C          5.97671        3.05636        0.60059
H          6.84062        3.71086        0.46382
H          3.46214       -1.91152       -0.60395
H          2.50833       -1.80075       -2.06337
C          4.17736       -0.41126       -2.00845
H          4.65329        0.28257       -1.29949
H          3.75363        0.22050       -2.80624
C          5.23008       -1.33346       -2.60543
H          5.71376       -1.94409       -1.82564
H          4.78736       -2.02770       -3.33776
H          6.02030       -0.76403       -3.11806
H          0.79996        1.88618       -0.93439
H          2.41937        1.75030       -1.62865
C          0.84670        0.86639       -2.84373
H         -0.03815        0.23096       -2.67936
H          1.54951        0.24395       -3.42327
C          0.47228        2.09776       -3.65306
H         -0.27217        2.71368       -3.12229
H          1.34897        2.73659       -3.84647
H          0.03807        1.82188       -4.62596
H         -1.53306        1.82113       -1.13933
H         -2.29633        0.38265       -1.80816
C         -3.66407        1.73702       -0.83288
C         -3.78015        2.97791       -0.19379
H         -2.87396        3.48270        0.15155
C         -4.82757        1.11278       -1.33401
C         -4.76084       -0.17261       -2.10989
H         -4.25208       -0.98242       -1.56565
H         -4.20097       -0.04373       -3.05058
H         -5.76837       -0.52501       -2.36935
C         -5.01699        3.58809       -0.00403
H         -5.07833        4.55621        0.49861
C         -6.06258        1.73857       -1.13223
H         -6.96495        1.25489       -1.51644
C         -6.16841        2.95775       -0.46730
H         -7.14816        3.41981       -0.32522
H         -3.81032        0.41920        1.74585
H         -3.95074       -0.81369        0.49381
C         -3.13760       -1.57770        2.33122
H         -2.46941       -1.25634        3.14716
H         -2.61730       -2.41404        1.83705
C         -4.46668       -2.04068        2.90642
H         -4.98995       -1.22215        3.42659
H         -5.13734       -2.40535        2.11176
H         -4.32872       -2.86036        3.62806
H         -0.36393        1.97639        1.08268
H         -2.00137        2.18691        1.72451
C         -0.68348        1.04006        3.00604
H          0.01172        0.19037        2.89495
H         -1.53220        0.66074        3.59804
C         -0.00559        2.17473        3.75911
H          0.88303        2.54011        3.21831
H         -0.68466        3.03209        3.89158
H          0.32551        1.85348        4.75823
