76
Cat676.ts34.5.log	Energy: -1344213.5432042
C          1.15229       -3.13447        0.35646
H          1.13889       -3.86690       -0.45578
H          2.14533       -2.98345        0.79319
C          0.01000       -3.11348        1.23821
H         -0.85935       -3.73838        1.01288
H          0.19803       -3.04675        2.31695
H         -0.32366       -1.58648        1.43692
Ir         0.05359       -1.36875       -0.19245
C          1.81208        0.93725        2.00438
C          3.45763       -0.40757        0.03904
C          1.73013        1.67208       -0.77180
C         -2.04352        0.93531       -1.85824
C         -3.38378       -0.68943        0.11041
C         -1.65445        1.42173        0.98015
P         -1.75315        0.07409       -0.25756
P          1.73436        0.18696        0.32334
C         -0.08475       -1.80090       -2.02155
O         -0.16938       -2.02389       -3.15706
H          2.66629        1.62914        2.09069
H          0.89970        1.54825        2.09576
C          1.85200       -0.10214        3.11503
H          2.73530       -0.75185        2.98855
H          0.97435       -0.75997        3.00603
C          1.86194        0.52556        4.49971
H          2.74946        1.16194        4.64708
H          0.97353        1.15952        4.64986
H          1.86770       -0.24059        5.28999
C          3.67137       -1.33874       -0.98471
C          4.55898        0.05512        0.76880
C          6.04651       -1.32278       -0.54628
C          5.84344       -0.40436        0.48223
C          4.95641       -1.78572       -1.28195
H          2.80828       -1.72042       -1.53637
H          5.10490       -2.50925       -2.08726
H          7.05407       -1.68081       -0.77129
H          6.69188       -0.03801        1.06560
H          4.42592        0.78474        1.57021
C          1.91687        2.97812       -0.30469
C          1.51053        1.47420       -2.14170
C          1.64229        3.85303       -2.54289
C          1.47446        2.55260       -3.02128
C          1.86463        4.06057       -1.18327
H          2.08748        3.16825        0.75568
H          2.00039        5.07476       -0.79886
H          1.60174        4.70183       -3.22977
H          1.30206        2.37646       -4.08590
H          1.34141        0.45937       -2.51051
H         -1.12344        1.51324       -2.04917
H         -2.03792        0.12807       -2.60940
C         -3.28581        1.80083       -2.00630
H         -3.33922        2.52944       -1.18003
H         -4.18419        1.17028       -1.91030
C         -3.30866        2.53686       -3.33793
H         -2.43793        3.20479       -3.43882
H         -3.28037        1.83107       -4.18330
H         -4.21643        3.15002       -3.44429
C         -3.55652       -2.04667       -0.17969
C         -4.46296        0.04374        0.62218
C         -5.85894       -1.92697        0.53922
C         -5.69246       -0.57448        0.83844
C         -4.79031       -2.66127        0.02763
H         -2.69807       -2.60902       -0.56128
H         -4.91455       -3.72179       -0.20449
H         -6.82415       -2.40992        0.71064
H         -6.52655        0.00380        1.24355
H         -4.33928        1.10238        0.86263
C         -1.85356        1.10935        2.33322
C         -1.25761        2.71825        0.63783
C         -1.26893        3.36601        2.96796
C         -1.06349        3.68290        1.62781
C         -1.66864        2.07393        3.31818
H         -2.14991        0.09497        2.61391
H         -1.83108        1.81568        4.36744
H         -1.11701        4.12226        3.74165
H         -0.74388        4.68801        1.34237
H         -1.07245        2.98412       -0.40421
