62
Cat639.ts34.5.log	Energy: -1103770.0827203
C         -1.49310       -2.87309       -0.34441
H         -1.19009       -3.73950        0.24988
H         -2.54763       -2.60387       -0.20371
C         -0.94510       -2.76668       -1.67694
H         -0.18438       -3.48278       -2.00006
H         -1.62446       -2.49080       -2.49257
H         -0.50268       -1.25280       -1.82212
Ir        -0.00926       -1.32023       -0.20578
C         -3.02836        0.45236       -0.85821
C         -2.46392       -0.11926        1.95519
C         -1.15641        2.01033        0.67579
C          2.54577        0.96536        0.60300
C          3.28120       -1.04773       -1.38666
C          1.64629        1.12600       -2.14156
P          1.85011       -0.07975       -0.77754
P         -1.62552        0.26012        0.36752
C          0.96507       -2.06983        1.22286
O          1.61305       -2.46363        2.10213
H         -2.55150        0.94129       -1.72289
H         -3.27638       -0.56890       -1.18202
C         -4.23699        1.20964       -0.40655
C         -4.25164        2.60823       -0.49596
H         -3.39751        3.11631       -0.95167
C         -5.36185        0.55019        0.13649
C         -5.44258       -0.94873        0.19106
H         -4.62701       -1.38986        0.78283
H         -5.38030       -1.39171       -0.81645
H         -6.39185       -1.27421        0.63782
C         -5.32870        3.35938       -0.03423
H         -5.31209        4.44858       -0.11828
C         -6.43530        1.31987        0.59804
H         -7.30584        0.80840        1.01822
C         -6.42574        2.71067        0.52593
H         -7.27960        3.28352        0.89506
H         -2.77119       -1.17354        1.96427
H         -1.71901        0.01103        2.75376
H         -3.33079        0.53244        2.14695
H         -0.38229        2.01950        1.45669
H         -0.73275        2.45323       -0.23751
H         -2.01091        2.61788        1.01105
H          1.82661        1.79246        0.70662
H          2.44872        0.35342        1.51005
C          3.93810        1.47993        0.41082
C          4.15317        2.65237       -0.32463
H          3.28878        3.20853       -0.69773
C          5.04985        0.78483        0.93489
C          4.87948       -0.43423        1.79605
H          4.26945       -1.21490        1.31947
H          4.37365       -0.18531        2.74356
H          5.85340       -0.87570        2.04747
C          5.43650        3.13005       -0.57636
H          5.57597        4.04813       -1.15196
C          6.33247        1.27743        0.67060
H          7.19490        0.73989        1.07447
C          6.53475        2.43191       -0.08211
H          7.54937        2.79029       -0.27112
H          3.52381       -1.83548       -0.66121
H          2.96752       -1.54091       -2.31815
H          4.16630       -0.42050       -1.57422
H          1.28871        0.57961       -3.02597
H          0.88247        1.86734       -1.86757
H          2.59034        1.63634       -2.38341
