90
Cat645.ts34.5.log	Energy: -1489718.7604763
C         -1.48446       -3.20913       -0.51243
H         -1.34956       -3.97281        0.25872
H         -2.53620       -2.97896       -0.70914
C         -0.58010       -3.24494       -1.63730
H          0.26226       -3.94206       -1.62985
H         -1.00023       -3.11116       -2.64111
H         -0.19344       -1.71682       -1.86449
Ir        -0.11696       -1.56831       -0.19143
C         -3.23595       -0.06196       -1.21689
O         -2.42797        0.48629        1.23271
O         -1.04705        1.54730       -0.66262
C          1.92230        1.04137        0.85778
O          3.14572       -1.23151       -0.07514
O          2.19577        0.42646       -1.73597
P          1.80199       -0.34818       -0.34514
P         -1.68773        0.09320       -0.18409
C          0.49748       -2.21869        1.48372
O          0.86760       -2.56773        2.52189
H         -2.98869        0.43124       -2.16892
H         -3.30033       -1.13774       -1.44067
C         -4.53305        0.44433       -0.65599
C         -5.02698        1.69815       -1.03033
H         -4.47532        2.29009       -1.76351
C         -5.27592       -0.33628        0.25494
C         -4.83530       -1.71973        0.63019
H         -3.78793       -1.73855        0.95975
H         -4.92202       -2.41048       -0.22570
H         -5.45356       -2.12557        1.44269
C         -6.20932        2.20672       -0.49797
H         -6.56914        3.19041       -0.80887
C         -6.45849        0.18838        0.78370
H         -7.02943       -0.41593        1.49425
C         -6.92587        1.45066        0.42414
H         -7.85318        1.83480        0.85569
C         -1.78471        0.33571        2.50173
H         -0.69565        0.25590        2.33375
C         -2.26657       -0.93753        3.16605
H         -2.05019       -1.80575        2.52849
H         -3.35147       -0.88899        3.34552
H         -1.75565       -1.08669        4.12882
C         -2.09426        1.57176        3.32018
H         -1.71801        2.47942        2.82876
H         -3.18239        1.67849        3.44661
H         -1.63206        1.49986        4.31597
C         -1.72028        2.80788       -0.57431
H         -2.68367        2.65981       -0.05803
C         -1.95458        3.34168       -1.97527
H         -2.50992        2.62244       -2.59302
H         -0.99513        3.54113       -2.47463
H         -2.52856        4.28003       -1.94226
C         -0.85915        3.74816        0.24626
H         -0.67661        3.33949        1.24919
H          0.11606        3.90382       -0.24139
H         -1.34786        4.72790        0.35618
H          1.16302        1.74705        0.48854
H          1.54279        0.63309        1.80427
C          3.26548        1.67583        1.01577
C          3.70067        2.63026        0.08862
H          3.03210        2.91364       -0.72689
C          4.11953        1.29397        2.07094
C          3.68538        0.28167        3.09253
H          3.37200       -0.66260        2.62129
H          2.82865        0.64583        3.68367
H          4.49931        0.05745        3.79571
C          4.96811        3.19753        0.17824
H          5.29022        3.93675       -0.55904
C          5.38827        1.87875        2.14901
H          6.05467        1.58512        2.96499
C          5.81897        2.81653        1.21355
H          6.81713        3.25290        1.29781
C          4.45554       -0.99730       -0.62251
H          4.59659        0.08580       -0.76863
C          4.57409       -1.71251       -1.95426
H          3.83874       -1.32525       -2.66922
H          4.40216       -2.79170       -1.82128
H          5.57974       -1.56894       -2.37796
C          5.45875       -1.51000        0.38833
H          5.38681       -0.95809        1.33327
H          5.28253       -2.57795        0.58799
H          6.48075       -1.38992       -0.00063
C          1.29553        0.65224       -2.82428
H          0.26678        0.52358       -2.45183
C          1.55988       -0.35471       -3.92485
H          1.44834       -1.38044       -3.54392
H          2.57882       -0.23985       -4.32601
H          0.84685       -0.21560       -4.75178
C          1.48725        2.08610       -3.27018
H          1.26284        2.77439       -2.44317
H          2.52594        2.25569       -3.59323
H          0.81737        2.32465       -4.10984
