100
Cat619.ts34.5.log	Energy: -1822636.5255825
C         -0.53048       -3.54484       -1.27175
H         -0.29171       -4.47673       -0.75084
H         -1.55430       -3.51377       -1.66144
C          0.50833       -2.97091       -2.09729
H          1.51049       -3.41017       -2.09487
H          0.22439       -2.61890       -3.09773
H          0.45469       -1.45276       -1.78755
Ir         0.20941       -1.84824       -0.16675
C         -2.01624        0.19191       -1.89752
C         -3.32411       -1.33757        0.27360
C         -1.77201        0.86650        0.99696
C          2.25492        0.22088        1.94158
C          3.47057       -0.66523       -0.51079
C          1.45339        1.35510       -0.64570
P          1.83388       -0.23283        0.18110
P         -1.74135       -0.52989       -0.19238
C          0.53215       -2.73078        1.46758
O          0.73727       -3.20894        2.50445
H         -1.94453       -0.71415       -2.52178
H         -1.08784        0.75700       -2.07648
C         -3.21246        0.99685       -2.30585
C         -3.08024        2.36068       -2.60639
H         -2.09270        2.82624       -2.54855
C         -4.47518        0.40715       -2.45050
H         -4.59400       -0.66064       -2.25520
C         -4.18168        3.12040       -2.99460
H         -4.05336        4.18072       -3.22743
C         -5.57835        1.16576       -2.83558
H         -6.55510        0.68559       -2.93383
C         -5.43932        2.52768       -3.10007
H         -6.30508        3.12113       -3.40340
C         -4.49815       -0.59832        0.50441
H         -4.49072        0.48820        0.39872
C         -3.36614       -2.71666        0.47929
H         -2.44502       -3.29043        0.35831
C         -5.67392       -1.22467        0.88104
H         -6.58860       -0.65641        1.06042
C         -4.54274       -3.36258        0.86112
H         -4.53061       -4.44171        1.01561
C         -5.70959       -2.61699        1.05541
O         -6.89581       -3.13955        1.42142
C         -6.98799       -4.52041        1.63286
H         -6.32086       -4.85708        2.44588
H         -8.02730       -4.72672        1.91854
H         -6.74864       -5.09299        0.71930
C         -1.24026        0.61508        2.27312
H         -0.82468       -0.37419        2.48489
C         -2.30592        2.13076        0.74896
H         -2.74390        2.36241       -0.22145
C         -1.21737        1.59712        3.24980
H         -0.80258        1.40472        4.24126
C         -2.28406        3.13442        1.72040
H         -2.70644        4.11099        1.48105
C         -1.73141        2.87517        2.97822
O         -1.65605        3.77351        3.97943
C         -2.15626        5.06267        3.76726
H         -3.23706        5.05290        3.54051
H         -1.99420        5.62147        4.69764
H         -1.62776        5.57858        2.94536
H          2.23058       -0.74160        2.47384
H          1.41097        0.81309        2.32356
C          3.57043        0.90601        2.13476
C          3.69561        2.29874        2.05854
H          2.80638        2.91376        1.90757
C          4.72942        0.14517        2.33785
H          4.64919       -0.94363        2.39170
C          4.94357        2.90996        2.16479
H          5.01954        3.99829        2.10070
C          5.97645        0.75294        2.44593
H          6.86717        0.13834        2.59619
C          6.08966        2.13957        2.35384
H          7.06818        2.61898        2.43410
C          4.41988        0.30589       -0.87167
H          4.16895        1.36672       -0.80260
C          3.83191       -2.01014       -0.58944
H          3.08900       -2.76407       -0.30913
C          5.68247       -0.06337       -1.30221
H          6.42798        0.68315       -1.58168
C          5.10489       -2.39643       -1.00923
H          5.35263       -3.45715       -1.05498
C          6.03897       -1.41902       -1.37028
O          7.29032       -1.68286       -1.79234
C          7.70884       -3.01624       -1.87359
H          7.09705       -3.59659       -2.58670
H          8.74691       -2.99954       -2.22910
H          7.67645       -3.51775       -0.89019
C          1.58122        1.42988       -2.04484
H          2.03386        0.59726       -2.59009
C          0.86025        2.43044        0.01299
H          0.70374        2.40391        1.09269
C          1.12529        2.53026       -2.75054
H          1.21233        2.58579       -3.83718
C          0.39960        3.54917       -0.68407
H         -0.07721        4.35472       -0.12645
C          0.51743        3.59906       -2.07350
O          0.05487        4.60738       -2.84190
C         -0.59490        5.68017       -2.22002
H          0.07046        6.21267       -1.51777
H         -0.89610        6.37142       -3.01725
H         -1.49654        5.35025       -1.67285
