98
Cat754.ts34.5.log	Energy: -1977283.2878473
C         -0.70017        2.45982       -2.57930
H         -0.67596        2.24452       -3.65175
H         -1.65032        2.88083       -2.23369
C          0.51381        2.95594       -1.98408
H          1.42897        3.00032       -2.58042
H          0.44577        3.78509       -1.27075
H          0.63059        2.15566       -0.60948
Ir         0.09761        0.81187       -1.45112
C         -1.41183        1.72532        1.62935
C         -3.36493        1.15391       -0.46961
C         -1.93476       -0.99299        0.81514
C          1.41636       -2.04741        0.25078
C          3.20303       -0.80111       -1.56202
C          2.63607        0.55150        0.98778
P          1.79929       -0.35935       -0.40233
P         -1.65270        0.69704        0.12579
C          0.00232       -0.39419       -2.89978
O         -0.05113       -1.12458       -3.79954
C         -0.99560        1.18287        2.84923
H         -0.90683        0.09977        2.95325
C         -1.49781        3.13067        1.52602
O         -1.83624        3.61288        0.31224
C         -1.86251        4.99832        0.09993
H         -2.63463        5.49140        0.71529
H         -2.10119        5.14578       -0.96068
H         -0.88214        5.45844        0.31178
C         -0.70120        1.99051        3.94878
H         -0.38354        1.53617        4.88931
C         -1.22918        3.94420        2.62995
H         -1.32034        5.02787        2.55299
C         -0.83125        3.37107        3.83869
H         -0.61872        4.01636        4.69401
H         -4.02029        1.32150        0.39619
H         -3.25235        2.11336       -0.99152
C         -3.92915        0.09259       -1.36768
C         -3.39568       -0.12237       -2.64633
H         -2.58614        0.51802       -2.99820
C         -4.97359       -0.73548       -0.93836
H         -5.41062       -0.58438        0.05130
C         -3.86496       -1.14739       -3.46242
H         -3.43913       -1.32633       -4.45117
C         -5.46251       -1.75924       -1.74640
H         -6.27533       -2.40800       -1.41529
C         -4.89308       -1.95802       -2.99746
F         -5.34863       -2.94531       -3.77136
H         -1.91820       -1.62470       -0.08390
H         -1.00646       -1.26315        1.34574
C         -3.15620       -1.34654        1.62285
C         -3.66886       -2.64592        1.49470
H         -3.17111       -3.34817        0.82100
C         -3.82252       -0.46579        2.48288
H         -3.45850        0.55390        2.61051
C         -4.80307       -3.05776        2.18552
H         -5.20452       -4.06715        2.07870
C         -4.96466       -0.85835        3.18009
H         -5.48880       -0.17006        3.84564
C         -5.44323       -2.15136        3.02234
F         -6.53623       -2.53146        3.68410
C          0.47104       -2.77129       -0.48411
H         -0.02498       -2.27104       -1.31854
C          2.05547       -2.70090        1.32776
O          3.00600       -2.02062        1.99445
C          3.76170       -2.66364        2.98427
H          3.14041       -2.96023        3.84711
H          4.51332       -1.93773        3.31881
H          4.27976       -3.55105        2.58439
C          0.13978       -4.08872       -0.17696
H         -0.59860       -4.62177       -0.77920
C          1.70326       -4.01541        1.66034
H          2.18447       -4.51485        2.50091
C          0.75334       -4.70304        0.90975
H          0.49893       -5.73038        1.18155
H          2.70141       -1.30761       -2.40034
H          3.57654        0.15555       -1.95559
C          4.28586       -1.64857       -0.97587
C          5.41132       -1.08138       -0.36326
H          5.54623        0.00300       -0.37458
C          4.16611       -3.04553       -0.96655
H          3.30307       -3.51333       -1.44607
C          6.37358       -1.86978        0.26281
H          7.25167       -1.43157        0.74058
C          5.11690       -3.84949       -0.34537
H          5.02392       -4.93695       -0.33234
C          6.20637       -3.24838        0.27219
F          7.11076       -4.01235        0.88810
H          2.01649        0.36892        1.87684
H          3.60296        0.06676        1.17507
C          2.78425        2.02348        0.75422
C          3.68995        2.53712       -0.18298
H          4.32658        1.85865       -0.75405
C          1.99258        2.93182        1.46619
H          1.28045        2.55915        2.20431
C          3.79702        3.90545       -0.41748
H          4.49808        4.30768       -1.15087
C          2.08884        4.30420        1.24988
H          1.47464        5.00937        1.81229
C          2.98814        4.77511        0.30303
F          3.07834        6.08765        0.08221
