112
Cat724.ts34.5.log	Energy: -1640028.2592943
C         -0.99135       -3.95292       -0.32686
H         -0.69569       -4.79050        0.31121
H         -2.07725       -3.83031       -0.40526
C         -0.20054       -3.73392       -1.51811
H          0.69891       -4.33586       -1.67598
H         -0.73373       -3.53905       -2.45758
H          0.01719       -2.20907       -1.56175
Ir         0.20910       -2.23061        0.12616
C         -3.18898       -1.19891       -0.45744
C         -2.08228       -0.63319        2.12982
C         -1.37763        1.07174       -0.17802
C          2.16585        0.71754        0.65080
C          3.66051       -1.75343        0.65683
C          2.68360       -0.66128       -1.87479
P          2.13965       -0.96493       -0.10313
P         -1.58706       -0.73646        0.32736
C          0.75734       -2.81914        1.82414
O          1.08895       -3.12624        2.89219
H         -3.92668       -0.40860       -0.24652
H         -3.53435       -2.10710        0.06208
C         -3.07485       -1.42834       -1.96316
H         -2.26753       -0.80450       -2.37911
H         -2.77136       -2.47160       -2.15808
C         -4.36129       -1.12170       -2.73057
H         -4.62072       -0.06951       -2.51155
C         -4.12938       -1.23930       -4.23095
H         -3.32407       -0.56461       -4.56120
H         -5.03654       -0.98248       -4.80000
H         -3.84191       -2.26772       -4.50828
C         -5.52032       -2.00175       -2.27750
H         -6.44315       -1.76022       -2.82782
H         -5.73366       -1.87715       -1.20466
H         -5.29725       -3.06810       -2.45277
H         -2.36094       -1.66949        2.37709
H         -1.14902       -0.43070        2.67474
C         -3.15023        0.33838        2.51377
C         -2.81783        1.61097        2.99596
H         -1.76777        1.87738        3.13997
C         -4.50716        0.01626        2.37335
H         -4.78114       -0.98331        2.02504
C         -3.81554        2.53388        3.30292
H         -3.54285        3.52198        3.68124
C         -5.52112        0.93201        2.66466
C         -6.96385        0.57620        2.45295
H         -7.32867        0.98401        1.49541
H         -7.11151       -0.51261        2.42448
H         -7.60325        0.98972        3.24682
C         -5.15678        2.20215        3.13180
H         -5.93440        2.93165        3.37463
H         -1.23981        1.63140        0.76027
H         -0.42349        1.11015       -0.71821
C         -2.44813        1.70808       -1.01571
C         -2.25193        1.88306       -2.39095
H         -1.30545        1.57623       -2.84082
C         -3.66469        2.13042       -0.46443
H         -3.83071        2.02008        0.60822
C         -3.24723        2.44628       -3.18634
H         -3.07646        2.57651       -4.25791
C         -4.67764        2.69110       -1.24763
C         -5.98547        3.09267       -0.62859
H         -5.89234        3.20439        0.46079
H         -6.35758        4.04017       -1.04629
H         -6.75891        2.32940       -0.81889
C         -4.45575        2.84415       -2.62173
H         -5.23465        3.28341       -3.25117
H          1.46009        1.32389        0.06287
H          3.15469        1.17080        0.49399
C          1.76563        0.71826        2.11617
H          0.85754        0.10461        2.23609
H          2.53775        0.21430        2.72630
C          1.51060        2.11063        2.69774
H          0.67236        2.55358        2.12556
C          1.08366        2.00375        4.15705
H          0.21793        1.33422        4.28007
H          0.81281        2.98677        4.57264
H          1.90110        1.59507        4.77394
C          2.71159        3.03853        2.54703
H          2.50716        4.02589        2.98931
H          2.98144        3.19665        1.49201
H          3.59444        2.62214        3.06161
H          3.42681       -1.86146        1.72742
H          3.68915       -2.77076        0.23992
C          4.94647       -1.02418        0.43065
C          5.80081       -1.38355       -0.62182
H          5.56880       -2.26306       -1.22868
C          5.30195        0.07623        1.22062
H          4.66961        0.34496        2.07069
C          6.94490       -0.63724       -0.89176
H          7.60273       -0.92997       -1.71361
C          6.43647        0.84909        0.95471
C          6.73922        2.06261        1.78500
H          6.11875        2.91729        1.46678
H          6.52357        1.88638        2.84928
H          7.79185        2.36525        1.69314
C          7.25484        0.48053       -0.11939
H          8.15086        1.06630       -0.34179
H          3.67343       -1.12286       -1.99604
H          1.97242       -1.21297       -2.50231
C          2.73427        0.78458       -2.25641
C          1.61499        1.41457       -2.80660
H          0.72812        0.81795       -3.03660
C          3.87412        1.55305       -1.98768
H          4.75571        1.06617       -1.56125
C          1.62903        2.78694       -3.05324
H          0.74479        3.27310       -3.47338
C          3.90524        2.92839       -2.22533
C          5.13176        3.73312       -1.90329
H          5.93343        3.09414       -1.50657
H          5.51808        4.25101       -2.79545
H          4.91185        4.50840       -1.15156
C          2.76140        3.54013       -2.75786
H          2.76258        4.61735       -2.94660
