106
Cat728.ts34.5.log	Energy: -1543191.4451638
C          0.50434        3.14597        0.77875
H          0.54912        3.99044        0.08474
H         -0.25198        3.26252        1.56307
C          1.76043        2.53492        1.14821
H          2.68068        2.85276        0.64884
H          1.92991        2.30775        2.20784
H          1.43955        1.00142        1.12147
Ir         0.54631        1.27919       -0.27836
C         -1.17245       -0.88602        2.05866
C         -2.55515        1.55054        1.43949
C         -2.40494       -0.54974       -0.52079
C          0.61280       -1.42286       -2.56324
C          3.21081       -0.45615       -1.87397
C          1.79255       -1.99963        0.08658
P          1.51155       -0.65402       -1.14251
P         -1.35892        0.34633        0.70669
C          0.15664        2.01508       -1.96821
O         -0.11720        2.46070       -3.00384
C         -1.48127       -2.24104        1.90598
H         -1.91932       -2.58457        0.96849
C         -0.57649       -0.48260        3.27589
O         -0.26622        0.82773        3.37849
C          0.38489        1.29572        4.52565
H         -0.22793        1.15406        5.43290
H          0.55156        2.36958        4.37304
H          1.35982        0.79817        4.67163
C         -1.23581       -3.17287        2.91595
H         -1.49573       -4.22302        2.76567
C         -0.32943       -1.40883        4.29238
H          0.12789       -1.09339        5.23024
C         -0.66580       -2.75149        4.11127
H         -0.47038       -3.46584        4.91442
H         -3.40332        1.00007        1.87898
H         -2.02458        2.03467        2.27270
C         -3.02572        2.58761        0.43064
H         -2.14605        3.00944       -0.08418
H         -3.62771        2.10288       -0.35811
C         -3.83914        3.70842        1.06210
H         -3.23123        4.19914        1.84437
H         -4.71438        3.28321        1.58727
C         -4.30865        4.75350        0.05986
H         -3.42974        5.16775       -0.46465
H         -4.91324        4.25887       -0.72103
C         -5.10977        5.88102        0.69034
H         -5.43409        6.61921       -0.05890
H         -4.51619        6.41660        1.44892
H         -6.01307        5.49796        1.19249
H         -2.39376        0.09545       -1.41381
H         -1.82188       -1.43662       -0.81267
C         -3.83063       -0.92783       -0.14259
H         -3.85624       -1.40802        0.85052
H         -4.44313       -0.01561       -0.04631
C         -4.47308       -1.85363       -1.16710
H         -3.87454       -2.78097       -1.24218
H         -4.41506       -1.38801       -2.16757
C         -5.91815       -2.21287       -0.85361
H         -5.96805       -2.66652        0.15231
H         -6.51427       -1.28536       -0.79068
C         -6.54106       -3.15350       -1.87243
H         -7.58536       -3.39386       -1.62162
H         -5.98628       -4.10428       -1.92979
H         -6.53456       -2.70991       -2.88111
C          0.65689       -0.72068       -3.77401
H          1.23390        0.20471       -3.83074
C         -0.19421       -2.57900       -2.51275
O         -0.29121       -3.22162       -1.32502
C         -0.98803       -4.43133       -1.24005
H         -2.06464       -4.30377       -1.45077
H         -0.86814       -4.78481       -0.20754
H         -0.57759       -5.18977       -1.92894
C         -0.03292       -1.14334       -4.90688
H          0.02713       -0.56275       -5.82921
C         -0.88653       -3.01273       -3.64889
H         -1.50520       -3.90894       -3.60434
C         -0.80258       -2.29894       -4.84148
H         -1.35346       -2.64989       -5.71724
H          3.71603       -1.43651       -1.82097
H          3.08811       -0.22883       -2.94365
C          4.03740        0.63943       -1.21954
H          3.46845        1.58209       -1.29014
H          4.14339        0.44642       -0.13881
C          5.41567        0.80453       -1.84238
H          5.30700        0.99968       -2.92518
H          5.97627       -0.14557       -1.76636
C          6.23083        1.92283       -1.20748
H          5.66461        2.86784       -1.28462
H          6.33179        1.72502       -0.12537
C          7.60799        2.09763       -1.82671
H          8.17080        2.91241       -1.34623
H          7.53554        2.33236       -2.90098
H          8.20827        1.17813       -1.73254
H          0.80359       -2.26216        0.48235
H          2.17202       -2.88773       -0.44414
C          2.70293       -1.61274        1.24086
H          3.73824       -1.45736        0.89201
H          2.36444       -0.64439        1.64880
C          2.68797       -2.64739        2.35706
H          3.09393       -3.60598        1.98504
H          1.64071       -2.84933        2.63908
C          3.45821       -2.21278        3.59509
H          4.50779       -2.00100        3.32347
H          3.04236       -1.25217        3.94978
C          3.41184       -3.23305        4.72068
H          3.96798       -2.89199        5.60736
H          3.84666       -4.19541        4.40577
H          2.37289       -3.42995        5.03087
