98
Cat740.ts34.5.log	Energy: -1728305.9366621
C         -1.18133        0.53120       -3.21914
H         -0.79526        0.00367       -4.09613
H         -2.26807        0.46807       -3.09976
C         -0.53159        1.76259       -2.85323
H          0.36966        2.08126       -3.38458
H         -1.16419        2.60831       -2.55771
H         -0.38734        1.66891       -1.29569
Ir        -0.00194        0.04861       -1.48497
C         -2.12293        0.92600        1.24228
C         -3.43352       -0.70496       -0.74375
C         -1.70537       -1.89430        1.03595
C          1.93093       -0.29710        1.50561
C          3.50052        0.07852       -0.83734
C          2.05848        2.28210        0.26095
P          1.84279        0.49586       -0.15104
P         -1.77557       -0.37127       -0.00430
C          0.73303       -1.55524       -2.15442
O          1.19117       -2.54721       -2.53976
C         -1.72117        0.81267        2.57514
H         -1.22720       -0.10294        2.90523
C         -2.71213        2.13948        0.82196
O         -2.97464        2.23804       -0.49680
C         -3.72012        3.31939       -0.97905
H         -4.70819        3.38054       -0.49075
H         -3.86319        3.14348       -2.05250
H         -3.19063        4.27841       -0.83977
C         -1.94626        1.84185        3.49077
H         -1.62408        1.72615        4.52771
C         -2.98511        3.15142        1.74452
H         -3.47660        4.07150        1.42751
C         -2.60114        2.99680        3.07812
H         -2.81128        3.79769        3.79119
C         -3.46386       -1.53576       -1.86652
H         -2.52203       -1.89373       -2.29173
C         -4.63891       -0.24408       -0.20476
H         -4.62709        0.39485        0.68282
C         -4.68488       -1.89429       -2.43481
H         -4.70385       -2.54565       -3.31219
C         -5.86997       -0.58712       -0.76930
C         -7.15704       -0.08570       -0.17878
H         -7.77406       -0.91746        0.19791
H         -6.97370        0.60088        0.65999
H         -7.76155        0.44880       -0.92874
C         -5.87711       -1.42044       -1.89562
H         -6.83062       -1.70004       -2.35309
C         -2.67793       -2.14694        2.01334
H         -3.44462       -1.40048        2.23256
C         -0.76023       -2.87637        0.74534
H         -0.00991       -2.67263       -0.02051
C         -2.67934       -3.35894        2.69396
H         -3.43692       -3.55297        3.45745
C         -0.76983       -4.11416        1.40100
C          0.23438       -5.17429        1.05399
H          0.69055       -4.98359        0.07290
H          1.04412       -5.21489        1.80201
H         -0.22886       -6.17209        1.02940
C         -1.73518       -4.33781        2.38571
H         -1.75885       -5.29787        2.90973
C          1.69071        0.37859        2.70223
H          1.47793        1.44915        2.67893
C          2.21732       -1.67637        1.55062
O          2.39172       -2.27986        0.35718
C          3.29136       -3.34916        0.23136
H          4.28746       -3.07220        0.61582
H          3.36155       -3.56033       -0.84306
H          2.93885       -4.25554        0.74892
C          1.73455       -0.29289        3.92504
H          1.54297        0.25199        4.85198
C          2.29579       -2.34359        2.77317
H          2.53596       -3.40731        2.80183
C          2.04295       -1.64981        3.95629
H          2.09034       -2.18141        4.90966
C          3.66015        0.00445       -2.21982
H          2.78723        0.15679       -2.86068
C          4.60845       -0.13160       -0.00598
H          4.48611       -0.06908        1.07938
C          4.91454       -0.28287       -2.75912
H          5.03625       -0.34693       -3.84322
C          5.86807       -0.42739       -0.53076
C          7.04812       -0.65602        0.36984
H          7.81670        0.12039        0.22525
H          6.75362       -0.64249        1.42865
H          7.52832       -1.62545        0.16278
C          6.00549       -0.50065       -1.92465
H          6.98272       -0.73508       -2.35687
C          3.30153        2.91773        0.14831
H          4.17745        2.35895       -0.18227
C          0.94973        3.03166        0.67184
H         -0.02691        2.54517        0.74805
C          3.42090        4.27318        0.44150
H          4.39199        4.76418        0.34047
C          1.05966        4.39390        0.97741
C         -0.14099        5.17857        1.41802
H          0.10031        6.24324        1.54525
H         -0.95900        5.09639        0.68598
H         -0.53671        4.79660        2.37113
C          2.31131        5.00514        0.85413
H          2.41309        6.07066        1.07818
