102
Cat743.ts34.5.log	Energy: -1917057.2419561
C          1.04934       -2.52618        2.21003
H          0.73336       -3.56914        2.12480
H          2.12989       -2.36319        2.17846
C          0.25494       -1.65580        3.02216
H         -0.67768       -2.00818        3.47077
H          0.77674       -0.90730        3.62883
H         -0.01886       -0.31350        2.12624
Ir        -0.09097       -1.32403        0.80156
C          1.89004        1.59000       -0.26702
O          3.09786       -0.45979        0.98370
O          2.31601       -0.67046       -1.47162
C         -2.62359       -0.44148       -1.51260
O         -3.25396       -0.23910        1.00581
O         -1.59835        1.51769        0.13159
P         -1.84424       -0.12057        0.09649
P          1.74491       -0.20748        0.02948
C         -0.63774       -2.85435       -0.19440
O         -0.97961       -3.79431       -0.76813
C          2.32200        2.11268       -1.48629
H          2.60946        1.41464       -2.27365
C          1.53818        2.47821        0.76783
O          1.19071        1.92462        1.94394
C          0.45780        2.68070        2.86958
H          1.08173        3.44891        3.35876
H          0.09697        1.97668        3.63077
H         -0.40899        3.16363        2.38895
C          2.38879        3.48977       -1.69674
H          2.73668        3.88148       -2.65496
C          1.59030        3.85934        0.55679
H          1.30808        4.54953        1.35198
C          2.01726        4.35700       -0.67300
H          2.06197        5.43829       -0.82440
C          4.25547        0.26030        0.84807
C          4.54224        1.25508        1.78230
H          3.82036        1.44478        2.57852
C          5.14407        0.00638       -0.19560
H          4.90230       -0.76287       -0.92996
C          5.71839        1.98877        1.67066
H          5.93219        2.77079        2.40498
C          6.31677        0.75174       -0.29380
H          7.00735        0.54977       -1.11752
C          6.62875        1.75235        0.63291
C          7.90898        2.53119        0.53632
H          8.68597        2.10415        1.19268
H          7.76734        3.57892        0.84105
H          8.30759        2.52594       -0.48843
C          2.01751       -1.90612       -1.98144
C          2.60503       -3.05533       -1.45739
H          3.30280       -2.96793       -0.62226
C          1.10601       -2.00121       -3.02916
H          0.63490       -1.09017       -3.39640
C          2.27114       -4.29756       -1.99008
H          2.72594       -5.19786       -1.56774
C          0.78436       -3.24850       -3.55227
H          0.05133       -3.31477       -4.36086
C          1.35162       -4.41984       -3.03753
C          0.93426       -5.76715       -3.54900
H          1.71687       -6.52296       -3.38932
H          0.69832       -5.73917       -4.62302
H          0.02856       -6.11143       -3.02197
C         -3.75501       -1.25495       -1.59822
H         -4.21358       -1.61145       -0.67480
C         -2.02307        0.02803       -2.69768
O         -0.91953        0.78446       -2.55668
C         -0.45766        1.53030       -3.65164
H         -0.05373        0.88121       -4.44842
H          0.34687        2.16911       -3.27065
H         -1.25942        2.16436       -4.06525
C         -4.30258       -1.59487       -2.83315
H         -5.18821       -2.23105       -2.88284
C         -2.58227       -0.29829       -3.93672
H         -2.13472        0.07399       -4.85821
C         -3.71383       -1.10969       -3.99663
H         -4.13601       -1.36280       -4.97224
C         -3.17282       -0.44195        2.35608
C         -3.43496       -1.70843        2.87677
H         -3.68723       -2.52000        2.19239
C         -2.82538        0.60401        3.20696
H         -2.62175        1.58814        2.78140
C         -3.35323       -1.91897        4.24916
H         -3.55963       -2.91577        4.64922
C         -2.73925        0.37599        4.57949
H         -2.46759        1.20211        5.24294
C         -2.99709       -0.88509        5.12654
C         -2.88603       -1.13668        6.60258
H         -2.05408       -1.82383        6.82763
H         -3.80257       -1.59807        7.00209
H         -2.70793       -0.20507        7.15779
C         -2.34112        2.46277       -0.52413
C         -3.73340        2.42036       -0.59317
H         -4.27536        1.60375       -0.11570
C         -1.64326        3.50908       -1.12821
H         -0.55450        3.51624       -1.06679
C         -4.41349        3.42602       -1.27852
H         -5.50469        3.38023       -1.33461
C         -2.34045        4.50691       -1.79941
H         -1.78121        5.32032       -2.27120
C         -3.73881        4.48569       -1.89192
C         -4.48445        5.58039       -2.59939
H         -5.47923        5.24456       -2.92588
H         -3.93699        5.93436       -3.48584
H         -4.63281        6.45263       -1.94051
