98
Cat776.ts34.5.log	Energy: -1728341.6007109
C          1.06804       -3.57902       -0.26660
H          0.92706       -4.29200       -1.08410
H          2.11485       -3.47635        0.04177
C          0.05242       -3.54300        0.75631
H         -0.86274       -4.12774        0.63262
H          0.36213       -3.49060        1.80744
H         -0.15152       -1.99062        1.03001
Ir        -0.03966       -1.76564       -0.62293
O          1.55216        0.63738        1.13512
C          3.44926       -0.81496       -0.20177
C          1.76807        1.14129       -1.50722
O         -1.38692        1.20823       -1.13146
C         -3.34739       -0.73605       -1.33214
C         -2.23271        0.26439        1.26850
P         -1.76360       -0.29413       -0.43755
P          1.67799       -0.26190       -0.29613
C         -0.47428       -2.18227       -2.42814
O         -0.73718       -2.41019       -3.53060
C          2.39893        0.54646        2.19660
C          3.12862        1.67701        2.56336
H          3.01998        2.58102        1.96089
C          2.52096       -0.64107        2.92514
H          1.94460       -1.51882        2.62568
C          3.98834        1.64530        3.66571
C          4.74818        2.87784        4.06253
H          5.00194        3.48878        3.18396
H          4.14530        3.50977        4.73606
H          5.67805        2.62697        4.59301
C          3.38249       -0.67781        4.01845
H          3.48960       -1.60421        4.58842
C          4.10977        0.45221        4.38855
H          4.78518        0.40719        5.24683
H          3.46674       -1.68702        0.47245
H          4.02845       -0.02314        0.29776
C          4.07282       -1.15400       -1.52752
C          5.32763       -0.62436       -1.85698
H          5.83922        0.02210       -1.13830
C          3.44530       -1.99802       -2.45443
H          2.46528       -2.41739       -2.21843
C          5.93590       -0.91829       -3.07572
H          6.91613       -0.49472       -3.30800
C          4.04996       -2.28729       -3.67608
H          3.53745       -2.94081       -4.38622
C          5.29575       -1.74889       -3.99367
H          5.76744       -1.97733       -4.95232
H          0.72522        1.32344       -1.79575
H          2.29305        0.72411       -2.38124
C          2.41163        2.38599       -0.98710
C          3.79111        2.60121       -1.08425
H          4.40985        1.86540       -1.60297
C          1.62919        3.35519       -0.34368
H          0.55113        3.19687       -0.26515
C          4.37678        3.74324       -0.53921
H          5.45583        3.89310       -0.62679
C          2.21024        4.49983        0.19474
H          1.58241        5.24474        0.69010
C          3.58938        4.69618        0.10564
H          4.04667        5.59358        0.52933
C         -2.24790        2.23572       -1.37772
C         -2.57573        3.14874       -0.37493
H         -2.14137        3.02635        0.61871
C         -2.75930        2.39661       -2.66883
H         -2.45754        1.69820       -3.45165
C         -3.45701        4.20619       -0.62876
C         -3.81939        5.16199        0.47051
H         -4.35717        4.64561        1.28174
H         -2.92012        5.61458        0.91648
H         -4.46174        5.97414        0.10350
C         -3.63279        3.44806       -2.92779
H         -4.04105        3.57541       -3.93307
C         -3.98888        4.33937       -1.91588
H         -4.67960        5.15847       -2.13053
H         -3.21905       -1.79978       -1.57069
H         -3.28656       -0.19078       -2.28723
C         -4.67299       -0.51564       -0.66806
C         -5.24718        0.75727       -0.54336
H         -4.73391        1.62781       -0.95445
C         -5.37806       -1.61260       -0.15491
H         -4.95378       -2.61481       -0.26178
C         -6.47375        0.92578        0.09506
H         -6.90109        1.92800        0.17930
C         -6.60632       -1.44572        0.48223
H         -7.13691       -2.31732        0.87320
C         -7.15655       -0.17257        0.61619
H         -8.11818       -0.03762        1.11668
H         -3.23701        0.71338        1.23205
H         -1.49881        1.05937        1.46551
C         -2.12322       -0.78288        2.33308
C         -0.96867       -0.84145        3.12303
H         -0.17963       -0.10330        2.96713
C         -3.12811       -1.73267        2.54402
H         -4.04073       -1.69095        1.94634
C         -0.81623       -1.82902        4.09401
H          0.09147       -1.84895        4.70261
C         -2.97449       -2.72527        3.51007
H         -3.76941       -3.46006        3.66018
C         -1.81716       -2.78043        4.28617
H         -1.70008       -3.55836        5.04448
