110
Cat753.ts34.5.log	Energy: -1826913.7160920
C          1.41823       -2.30208       -2.67387
H          1.00406       -2.31938       -3.68579
H          2.48664       -2.08759       -2.62168
C          0.85321       -3.20396       -1.71429
H         -0.00258       -3.83018       -1.97970
H          1.52660       -3.69308       -1.00132
H          0.53768       -2.32320       -0.36291
Ir         0.14317       -1.08593       -1.41374
C          3.10712       -0.94466        0.65574
C          2.92636        1.26495       -1.23523
C          1.17453        1.14819        1.07003
C         -2.12698        1.04160        0.33566
C         -3.32067       -1.16447       -1.02420
C         -1.85625       -1.69291        1.45917
P         -1.74320       -0.71213       -0.12357
P          1.86563        0.07045       -0.26370
C         -0.68287       -0.27898       -2.89982
O         -1.22751        0.18165       -3.81633
C          2.98470       -1.15614        2.03416
H          2.19826       -0.63890        2.58588
C          4.14976       -1.62228       -0.01406
O          4.25402       -1.40691       -1.34370
C          5.25198       -2.06175       -2.07689
H          6.26223       -1.78031       -1.73268
H          5.12991       -1.74534       -3.12040
H          5.14429       -3.15875       -2.02208
C          3.85635       -1.98308        2.74060
H          3.73209       -2.11154        3.81773
C          5.02680       -2.45697        0.68707
H          5.83416       -2.96981        0.16447
C          4.88071       -2.63296        2.06242
H          5.57505       -3.28493        2.59731
H          3.72208        1.65116       -0.58249
H          3.39178        0.65664       -2.02038
C          2.11412        2.38125       -1.81547
C          1.38451        2.18924       -2.99519
H          1.44473        1.22997       -3.51112
C          2.03902        3.62250       -1.17549
H          2.61829        3.78770       -0.26394
C          0.58650        3.21052       -3.50195
H          0.01498        3.04307       -4.41768
C          1.23855        4.65863       -1.66726
C          1.13229        5.95265       -0.91371
H          0.41976        5.85496       -0.07647
H          2.09784        6.24483       -0.47526
H          0.78082        6.77196       -1.55746
C          0.51106        4.43660       -2.84179
H         -0.11680        5.23566       -3.24720
H          0.32884        1.63554        0.56998
H          0.69063        0.46102        1.78578
C          1.96261        2.21408        1.78319
C          1.27029        3.36853        2.18198
H          0.20128        3.45071        1.96495
C          3.33046        2.13689        2.05362
H          3.88933        1.24843        1.75394
C          1.93605        4.40669        2.82227
H          1.38571        5.30191        3.12297
C          4.01924        3.17760        2.69178
C          5.49705        3.06162        2.93292
H          6.06024        3.15608        1.98980
H          5.85892        3.84336        3.61555
H          5.75532        2.08245        3.36444
C          3.30557        4.31582        3.07378
H          3.82581        5.13815        3.57256
C         -1.67189        2.01781       -0.55812
H         -1.06213        1.70275       -1.40911
C         -2.88633        1.46641        1.44819
O         -3.34536        0.51995        2.28685
C         -4.20540        0.87147        3.33451
H         -3.70240        1.51130        4.08071
H         -4.50770       -0.06807        3.81373
H         -5.10833        1.38127        2.96029
C         -1.94274        3.37310       -0.37748
H         -1.56281        4.09685       -1.09931
C         -3.13867        2.83000        1.64831
H         -3.71141        3.15883        2.51531
C         -2.67150        3.77466        0.73642
H         -2.88318        4.83329        0.90736
H         -3.21943       -0.67133       -2.00222
H         -3.24747       -2.24695       -1.20642
C         -4.59873       -0.77575       -0.35196
C         -5.29014       -1.66019        0.48721
H         -4.93106       -2.68457        0.61184
C         -5.10448        0.51847       -0.51256
H         -4.57672        1.21372       -1.17171
C         -6.43891       -1.24688        1.15456
H         -6.97414       -1.94767        1.80025
C         -6.24998        0.95633        0.15993
C         -6.72956        2.36787       -0.01539
H         -5.95145        3.08420        0.29473
H         -6.96042        2.58302       -1.07065
H         -7.63467        2.56603        0.57598
C         -6.91298        0.05537        0.99943
H         -7.81449        0.37509        1.52968
H         -1.28549       -1.12479        2.20758
H         -2.90455       -1.67971        1.78235
C         -1.33083       -3.08757        1.32884
C         -2.11239       -4.10681        0.77048
H         -3.14075       -3.89961        0.46786
C         -0.02438       -3.39312        1.72045
H          0.59682       -2.60621        2.15620
C         -1.58859       -5.38421        0.59894
H         -2.20809       -6.17136        0.16220
C          0.52311       -4.67058        1.55148
C          1.94456       -4.94348        1.94694
H          2.64539       -4.34057        1.34723
H          2.12782       -4.67578        2.99879
H          2.20364       -6.00318        1.81319
C         -0.27790       -5.66410        0.98157
H          0.12975       -6.66850        0.83830
