70
Cat727.ts34.5.log	Energy: -1247393.1640612
C         -3.33614       -1.46378       -0.39887
H         -3.62635       -2.47567       -0.10173
H         -4.03337       -0.69378       -0.05427
C         -2.77158       -1.30234       -1.71850
H         -2.55893       -2.18594       -2.32748
H         -3.12879       -0.46264       -2.32871
H         -1.58288       -0.30427       -1.48521
Ir        -1.23071       -1.15701       -0.08569
C         -0.21959        2.18034        0.25032
C         -3.02214        1.75845        1.01630
C         -0.89826        1.00099        2.77019
C          2.23669       -0.74037        0.60348
C          1.69037       -2.74226       -1.29805
C          1.43671        0.03754       -2.11643
P          1.01002       -1.11871       -0.73022
P         -1.35993        0.93467        0.97823
C         -1.01127       -2.70235        0.97224
O         -0.86970       -3.65448        1.61977
C          1.05918        2.37606        0.78415
H          1.34075        1.86790        1.70754
C         -0.52558        2.82104       -0.97036
O         -1.74810        2.56625       -1.48949
C         -2.13248        3.18319       -2.68559
H         -2.13075        4.28349       -2.59684
H         -3.15454        2.84410       -2.89739
H         -1.47864        2.88973       -3.52527
C          2.00499        3.18512        0.15355
H          2.99368        3.30985        0.60021
C          0.41233        3.64249       -1.60122
H          0.16910        4.13802       -2.54115
C          1.67625        3.82230       -1.03724
H          2.40213        4.46359       -1.54270
H         -3.42384        1.65873       -0.00125
C         -3.95973        1.11928        2.03182
H         -3.69608        1.38554        3.06578
H         -3.93956        0.02108        1.95928
H         -2.90167        2.83769        1.20195
H         -4.99668        1.44880        1.86360
H          0.11649        0.58677        2.84988
C         -0.99330        2.34957        3.46686
H         -2.01980        2.74462        3.46408
H         -0.35194        3.10207        2.98482
H         -1.54912        0.25028        3.24645
H         -0.67721        2.26676        4.51893
C          1.83446       -0.98948        1.91713
H          0.82586       -1.37913        2.07226
C          3.54811       -0.26028        0.39681
O          3.95998       -0.11540       -0.87964
C          5.20271        0.46902       -1.14570
H          5.27096        1.48898       -0.72884
H          5.29355        0.52548       -2.23802
H          6.03697       -0.13618       -0.74999
C          2.66050       -0.72793        3.01015
H          2.30967       -0.93386        4.02339
C          4.37036        0.03940        1.48929
H          5.37199        0.43961        1.33204
C          3.92312       -0.19090        2.78962
H          4.58100        0.04279        3.63035
H          1.62928       -3.39636       -0.41303
C          0.93666       -3.35560       -2.46498
H          1.05890       -2.76585       -3.38648
H         -0.13921       -3.41132       -2.23602
H          2.75972       -2.59916       -1.52753
H          1.29899       -4.37376       -2.67455
H          2.36316       -0.34062       -2.56921
C          0.36105        0.23385       -3.17002
H         -0.52847        0.71488       -2.74178
H          0.03502       -0.71406       -3.62275
H          1.69245        1.00145       -1.65123
H          0.74349        0.87999       -3.97628
