86
Cat787.ts34.5.log	Energy: -1300949.5149753
C          2.14012       -3.43976        0.33059
H          1.77138       -4.31660       -0.20930
H          3.20218       -3.23998        0.15135
C          1.63576       -3.24156        1.66975
H          0.85467       -3.90427        2.05527
H          2.35615       -2.96486        2.44997
H          1.27418       -1.72872        1.75082
Ir         0.72704       -1.83005        0.15115
C          2.54561        1.10117        1.10997
C          4.00061       -0.68667       -0.68321
C          1.75778        1.02054       -1.77905
C         -1.73425        0.52992       -0.62717
C         -2.71191       -1.81875        0.91263
C         -1.09457        0.35986        2.26683
P         -1.23247       -0.68478        0.72111
P          2.25848       -0.08180       -0.34227
C         -0.21671       -2.56012       -1.29655
O         -0.84718       -2.94477       -2.19535
H          1.81699        0.76304        1.85824
H          3.53433        0.85017        1.51996
C          2.41286        2.58016        0.91628
C          3.52590        3.43074        0.89945
H          4.52653        3.01541        1.04264
C          1.14700        3.15134        0.74740
H          0.26710        2.50428        0.78450
C          3.36561        4.79784        0.69267
H          4.24218        5.45024        0.67832
C          0.96401        4.52040        0.53245
C         -0.41995        5.07833        0.36267
H         -1.00119        4.49412       -0.36812
H         -0.97593        5.05192        1.31438
H         -0.39705        6.12212        0.01982
C          2.09592        5.34067        0.50042
H          1.98094        6.41460        0.33116
H          4.13512       -1.38301        0.16516
C          4.03025       -1.51572       -1.96320
H          4.94431       -2.12982       -2.00172
H          3.16040       -2.18616       -2.02799
H          4.03339       -0.86987       -2.85457
C          5.15314        0.31014       -0.63580
H          5.18236        0.88226        0.30205
H          6.11014       -0.23279       -0.70900
H          5.12052        1.02855       -1.46491
H          0.93153        1.59312       -1.32357
C          2.78598        2.02181       -2.29593
H          2.29596        2.72035       -2.99382
H          3.24526        2.62115       -1.50073
H          3.58423        1.51562       -2.85880
C          1.17491        0.22412       -2.94262
H          0.46628       -0.54319       -2.60745
H          0.65684        0.90509       -3.63688
H          1.96114       -0.29102       -3.51332
H         -1.31240        1.50203       -0.33128
H         -1.14505        0.19115       -1.48836
C         -3.16827        0.66553       -1.03940
C         -3.73608       -0.28958       -1.89208
H         -3.11856       -1.10787       -2.27371
C         -3.96769        1.72866       -0.60373
H         -3.53162        2.49489        0.04287
C         -5.07785       -0.19902       -2.25284
H         -5.51375       -0.95558       -2.90993
C         -5.31390        1.84024       -0.96318
C         -6.14116        3.00477       -0.50049
H         -5.69081        3.49972        0.37176
H         -6.23747        3.76151       -1.29685
H         -7.15986        2.69115       -0.22777
C         -5.86500        0.85031       -1.78548
H         -6.91882        0.91075       -2.07117
H         -2.92351       -2.06080       -0.14387
C         -2.33964       -3.12790        1.60234
H         -3.17614       -3.84004        1.51863
H         -1.44624       -3.57210        1.14118
H         -2.13350       -2.98365        2.67353
C         -3.97420       -1.21737        1.52172
H         -4.28625       -0.28591        1.03265
H         -4.80442       -1.93494        1.42145
H         -3.84741       -1.02265        2.59746
H         -0.11029        0.82976        2.10625
C         -2.10622        1.48243        2.46039
H         -1.85608        2.04613        3.37404
H         -2.09213        2.20022        1.62880
H         -3.13446        1.11301        2.56789
C         -0.97135       -0.51623        3.50905
H         -0.25151       -1.33429        3.35864
H         -0.62633        0.08756        4.36349
H         -1.93852       -0.95914        3.78940
