100
Cat702.ts34.5.log	Energy: -1446447.7117844
C          2.18185       -2.87870       -0.59862
H          1.92951       -3.48305       -1.47447
H          3.23984       -2.60591       -0.55169
C          1.50452       -3.20804        0.63234
H          0.72509       -3.97542        0.62867
H          2.09868       -3.22935        1.55408
H          1.03720       -1.83534        1.23472
Ir         0.70833       -1.32369       -0.34108
C          3.88795        0.24312       -0.64915
O          1.63538        1.62877       -1.33326
O          2.35070        1.43684        1.09434
C         -1.82004        1.14304       -0.38902
O         -2.65023       -1.30817        0.00637
O         -1.33824       -0.21861        1.96253
P         -1.28384       -0.44836        0.33134
P          2.11462        0.48572       -0.24266
C          0.05527       -1.50345       -2.10832
O         -0.32203       -1.58061       -3.19758
H          4.35410        1.20529       -0.91500
H          3.90517       -0.39603       -1.54619
C          4.63966       -0.38347        0.51903
H          4.62865        0.33876        1.35116
H          4.09659       -1.27247        0.89012
C          6.08784       -0.77687        0.21711
H          6.59031        0.11487       -0.20364
C          6.80983       -1.15739        1.50470
H          6.78634       -0.33612        2.23785
H          7.86421       -1.41256        1.31608
H          6.33458       -2.03567        1.97318
C          6.18748       -1.89991       -0.80931
H          7.23828       -2.14019       -1.03364
H          5.69910       -1.64079       -1.76059
H          5.71122       -2.81946       -0.42951
C          2.34339        2.83748       -1.55592
H          2.61027        3.29944       -0.58882
H          3.28043        2.62819       -2.10102
C          1.48043        3.76941       -2.37879
H          2.09991        4.63295       -2.67877
H          1.20095        3.24742       -3.31039
C          0.22765        4.25250       -1.66424
H          0.51990        4.80880       -0.75587
H         -0.33354        3.37288       -1.31435
C         -0.66422        5.12038       -2.53563
H         -0.13113        6.01642       -2.89278
H         -1.00954        4.56829       -3.42465
H         -1.55635        5.46042       -1.98867
C          1.73159        1.20950        2.34773
H          0.85422        0.55224        2.22789
H          2.45111        0.68873        3.00404
C          1.33726        2.53952        2.95619
H          1.00966        2.36393        3.99602
H          2.23609        3.17812        3.01725
C          0.24668        3.25894        2.17666
H         -0.67897        2.66218        2.23039
H          0.53394        3.27858        1.11328
C         -0.02681        4.67190        2.66212
H         -0.33588        4.68305        3.71997
H          0.87258        5.30291        2.57708
H         -0.82621        5.15342        2.07793
H         -1.29561        1.18748       -1.35687
H         -1.33160        1.90720        0.23564
C         -3.30786        1.40814       -0.58030
H         -3.69874        0.68107       -1.30851
H         -3.87091        1.21585        0.34868
C         -3.61855        2.82985       -1.05594
H         -2.98438        3.03416       -1.93918
C         -5.07590        2.93739       -1.48930
H         -5.31131        2.21909       -2.28975
H         -5.31263        3.94673       -1.86019
H         -5.75202        2.72674       -0.64363
C         -3.29232        3.87395        0.00732
H         -3.52059        4.89023       -0.34945
H         -2.23076        3.85995        0.29615
H         -3.89079        3.70206        0.91829
C         -2.67573       -2.72625        0.00888
H         -1.68298       -3.10102       -0.30401
H         -2.86574       -3.08498        1.03550
C         -3.76145       -3.20086       -0.93120
H         -3.82317       -4.30049       -0.84918
H         -4.73367       -2.81069       -0.58047
C         -3.53607       -2.79674       -2.38102
H         -2.56897       -3.19918       -2.72657
H         -3.43024       -1.70075       -2.43030
C         -4.64984       -3.25141       -3.30891
H         -4.75703       -4.34848       -3.30266
H         -5.62125       -2.82633       -3.00764
H         -4.46017       -2.94315       -4.34814
C         -2.37720        0.43264        2.67600
H         -1.92308        0.73582        3.63401
H         -2.68006        1.35806        2.15748
C         -3.57873       -0.45876        2.92662
H         -4.32507        0.13002        3.48901
H         -4.04261       -0.71392        1.95989
C         -3.23617       -1.73200        3.68698
H         -2.84597       -1.46598        4.68547
H         -2.40425       -2.23726        3.16922
C         -4.41568       -2.67949        3.82715
H         -5.25490       -2.20274        4.35900
H         -4.79203       -2.99375        2.83983
H         -4.14296       -3.58879        4.38384
