102
Cat789.ts34.5.log	Energy: -1588303.5103589
C          2.44338       -3.39720        0.34183
H          2.50226       -4.11217       -0.48327
H          3.41851       -3.07632        0.71979
C          1.35252       -3.55612        1.26814
H          0.57911       -4.30207        1.06662
H          1.56238       -3.45170        2.33935
H          0.78280       -2.09189        1.47741
Ir         1.06514       -1.81289       -0.15503
C          2.84618        0.91102        1.63356
O          4.12856       -0.60627       -0.14605
O          2.34516        1.02331       -1.08746
C         -0.83865        1.13572       -0.42869
O         -1.89941       -0.97183       -1.53982
O         -1.87680       -0.98596        1.04694
P         -0.91448       -0.69291       -0.25531
P          2.56900       -0.11184        0.09065
C          0.99936       -2.26329       -1.99704
O          0.96870       -2.49275       -3.12819
H          3.34322        0.18677        2.29856
H          3.57473        1.70877        1.42752
C          1.60613        1.45213        2.27259
C          1.28533        2.81538        2.21490
H          1.97106        3.51429        1.72973
C          0.72149        0.58945        2.92767
H          0.96484       -0.47371        2.97988
C          0.10534        3.28633        2.78351
H         -0.13501        4.35100        2.73082
C         -0.46726        1.04372        3.50780
C         -1.36624        0.07795        4.22001
H         -2.36221        0.50681        4.40155
H         -1.48385       -0.84071        3.62752
H         -0.94280       -0.20511        5.19762
C         -0.77026        2.40646        3.41955
H         -1.69525        2.78336        3.86497
C          5.12344        0.02851       -0.92315
H          5.70655       -0.78337       -1.38853
H          4.65728        0.59949       -1.74306
C          6.04674        0.90965       -0.10075
H          6.80897        1.32917       -0.78149
H          5.48739        1.77843        0.29038
C          6.72039        0.18058        1.05239
H          7.32228       -0.65217        0.64776
H          5.94149       -0.29118        1.67356
C          7.59303        1.08454        1.90673
H          8.39521        1.55051        1.31175
H          7.00294        1.89985        2.35629
H          8.06937        0.52933        2.72880
C          2.66417        2.40245       -1.08098
H          1.93412        2.93807       -0.44958
H          3.66766        2.58058       -0.65718
C          2.59922        2.92258       -2.50146
H          2.87446        3.99198       -2.48106
H          3.37152        2.41366       -3.10488
C          1.23702        2.74640       -3.15849
H          0.46520        3.23206       -2.53538
H          0.98993        1.67235       -3.16935
C          1.17745        3.30091       -4.57176
H          1.39621        4.38098       -4.59131
H          1.91027        2.80396       -5.22767
H          0.18152        3.15594       -5.01649
H         -0.41811        1.48500        0.52647
H         -0.04420        1.26039       -1.17918
C         -2.06254        1.91504       -0.80617
C         -2.60857        1.82705       -2.09316
H         -2.13988        1.17293       -2.82963
C         -2.67229        2.76630        0.12057
H         -2.23121        2.85636        1.11740
C         -3.75181        2.55158       -2.41801
H         -4.17301        2.47535       -3.42371
C         -3.82558        3.49470       -0.18648
C         -4.48206        4.35649        0.85384
H         -5.19703        3.77102        1.45669
H         -3.74312        4.78180        1.54900
H         -5.04232        5.18639        0.39924
C         -4.36232        3.37410       -1.47250
H         -5.26127        3.93734       -1.73838
C         -2.23932       -2.27669       -1.98468
H         -2.05798       -2.29732       -3.07182
H         -1.56389       -3.01768       -1.52263
C         -3.68713       -2.59341       -1.67364
H         -3.90326       -3.60786       -2.05306
H         -3.80935       -2.64585       -0.57886
C         -4.67762       -1.59435       -2.25558
H         -4.59303       -1.60144       -3.35694
H         -4.38519       -0.57811       -1.94305
C         -6.11460       -1.87035       -1.84518
H         -6.44456       -2.86997       -2.17180
H         -6.22929       -1.83112       -0.74934
H         -6.80876       -1.13308       -2.27626
C         -3.14037       -0.35870        1.21138
H         -3.00151        0.59044        1.75571
H         -3.57517       -0.10798        0.22945
C         -4.07559       -1.26676        1.97707
H         -4.19721       -2.21176        1.42140
H         -3.61455       -1.53719        2.94154
C         -5.43345       -0.61930        2.20878
H         -5.85894       -0.31033        1.23746
H         -5.29801        0.31491        2.78268
C         -6.41534       -1.52727        2.93066
H         -6.60398       -2.44666        2.35335
H         -6.02771       -1.83260        3.91581
H         -7.38429       -1.03138        3.09228
