66
Cat788.ts34.5.log	Energy: -1292490.1981456
C         -4.24411        0.07663       -0.01740
H         -4.84339       -0.48286        0.70572
H         -4.37415        1.16133        0.04214
C         -4.03896       -0.52718       -1.30848
H         -4.39613       -1.54533       -1.48682
H         -4.12557        0.10745       -2.19757
H         -2.48272       -0.34350       -1.62156
Ir        -2.19454       -0.59626        0.02044
C         -0.48111        2.30212       -1.17315
O         -2.24001        2.61118        0.95977
O          0.00389        1.38543        1.37663
C          0.86956       -1.89214        1.00574
O         -0.17895       -3.11800       -1.09408
O          0.68247       -0.73273       -1.50029
P         -0.22204       -1.60812       -0.43550
P         -1.25447        1.46361        0.30519
C         -2.44316       -1.61241        1.60741
O         -2.57760       -2.19955        2.59294
H         -0.26727        1.43559       -1.81629
H         -1.28067        2.88053       -1.66294
C          0.76778        3.10083       -0.97126
C          0.78518        4.49834       -1.01730
H         -0.13364        5.04667       -1.24029
C          1.96896        2.42346       -0.71814
H          1.95327        1.33119       -0.69187
C          1.97160        5.19477       -0.79024
H          1.97644        6.28689       -0.83286
C          3.16402        3.10557       -0.48660
C          4.42868        2.35244       -0.19305
H          4.67352        2.39259        0.88147
H          4.33455        1.29334       -0.46997
H          5.28779        2.77603       -0.73499
C          3.15075        4.50677       -0.51951
H          4.07711        5.06099       -0.34437
C         -2.15739        4.00430        0.78390
H         -1.16284        4.40772        1.03022
H         -2.40576        4.29762       -0.25034
H         -2.89948        4.46049        1.45476
C          0.40928        2.43990        2.22041
H          0.82761        3.28879        1.65522
H         -0.42865        2.78755        2.84550
H          1.19429        2.04171        2.87872
H          0.83147       -0.92929        1.53825
H          0.32098       -2.62385        1.62173
C          2.28159       -2.32381        0.75240
C          2.57452       -3.59569        0.24797
H          1.75756       -4.28722        0.03447
C          3.33897       -1.44410        1.01635
H          3.11135       -0.45392        1.42361
C          3.89513       -3.95968       -0.00106
H          4.11772       -4.95352       -0.39774
C          4.67147       -1.79910        0.78253
C          5.79532       -0.84823        1.08028
H          6.21110       -0.41678        0.15473
H          5.46151       -0.01426        1.71287
H          6.62191       -1.35856        1.59737
C          4.93520       -3.07122        0.26043
H          5.96943       -3.37239        0.07111
C         -1.16126       -3.50524       -2.03089
H         -2.15068       -3.11420       -1.73720
H         -0.91523       -3.13699       -3.04126
H         -1.18920       -4.60338       -2.04802
C          1.79637       -1.23332       -2.21758
H          2.73409       -1.04626       -1.67285
H          1.70617       -2.31535       -2.39323
H          1.82628       -0.70795       -3.18315
