62
Cat730.ts34.5.log	Energy: -1337524.1178797
C          0.32127       -3.55294       -0.05473
H         -0.52390       -4.18426       -0.34238
H          1.22780       -3.69261       -0.64975
C          0.47365       -3.25131        1.34115
H         -0.28426       -3.58109        2.05666
H          1.48773       -3.25639        1.75620
H          0.77082       -1.64878        1.39859
Ir        -0.33083       -1.49613        0.15478
C          2.25876        0.88821       -0.65660
O          2.68797       -1.75979       -1.12654
O          1.20076       -0.35328       -2.66173
C         -1.42286        1.86363        0.18524
O         -2.34229        0.36985        2.18229
O          0.09303        1.00906        2.21843
P         -1.03373        0.39243        1.19053
P          1.43693       -0.69066       -1.06095
C         -1.96747       -1.83456       -0.74349
O         -2.94563       -2.08306       -1.31242
C          2.21853        1.98910       -1.51261
H          1.76182        1.86158       -2.49494
C          2.83743        1.03498        0.62132
O          2.91163       -0.08030        1.36612
C          3.21391        0.01830        2.72922
H          4.25013        0.36108        2.89622
H          3.10438       -0.99089        3.14595
H          2.51138        0.69369        3.24308
C          2.72844        3.22588       -1.11770
H          2.69118        4.07676       -1.80096
C          3.31412        2.28254        1.03535
H          3.74444        2.40864        2.02911
C          3.25953        3.36887        0.16049
H          3.64518        4.33696        0.49017
C          3.89738       -1.42915       -1.76910
H          3.71939       -1.01295       -2.77407
H          4.47442       -0.69710       -1.17953
H          4.48516       -2.35344       -1.86218
C          0.24333       -1.07578       -3.40096
H          0.45550       -2.15772       -3.39699
H         -0.77036       -0.92023       -2.99911
H          0.28879       -0.70572       -4.43478
C         -0.52274        2.92136        0.06672
H          0.40890        2.89220        0.63536
C         -2.60134        1.87723       -0.58707
O         -3.40867        0.80858       -0.44857
C         -4.52294        0.66995       -1.28741
H         -5.27417        1.45582       -1.09642
H         -4.95529       -0.31318       -1.06808
H         -4.23282        0.69579       -2.35146
C         -0.78433        3.99586       -0.78404
H         -0.06487        4.81280       -0.86483
C         -2.86581        2.94891       -1.44364
H         -3.77637        2.96936       -2.04266
C         -1.95602        4.00411       -1.53202
H         -2.17322        4.83817       -2.20397
C         -3.17305       -0.75309        2.34916
H         -2.65887       -1.67680        2.03171
H         -3.44378       -0.82669        3.41303
H         -4.08757       -0.63449        1.74744
C         -0.26522        1.96800        3.19213
H         -0.87239        2.78434        2.76830
H         -0.83398        1.50124        4.01054
H          0.66913        2.39059        3.58896
