120
Cat712.ts34.5.log	Energy: -2017327.2645455
C          0.72190       -2.69528       -1.82927
H          0.26007       -2.84314       -2.80960
H          1.80047       -2.88061       -1.80696
C         -0.04617       -3.06190       -0.67245
H         -1.07622       -3.41498       -0.79197
H          0.49155       -3.57172        0.13904
H         -0.05225       -1.88437        0.31657
Ir         0.00702       -0.83194       -1.00458
C          1.75622        0.76551        1.83679
C          2.92578       -1.53633        0.41794
C          3.05518        1.18943       -0.62189
C         -2.58692        1.58435       -1.01752
C         -3.50771       -1.02839       -0.44490
C         -1.91499        0.31267        1.63184
P         -2.00811        0.04295       -0.19261
P          1.89348       -0.02924        0.15612
C         -0.13665        0.02954       -2.65312
O         -0.23050        0.54886       -3.68949
H          2.69717        0.59220        2.38032
H          0.96704        0.21519        2.36190
C          1.41124        2.25440        1.76567
H          0.84369        2.45944        0.84287
H          0.71632        2.47667        2.59228
C          2.58548        3.23211        1.88203
H          3.37344        2.91604        1.18156
C          2.15031        4.63387        1.47345
H          1.76631        4.64138        0.44130
H          2.98529        5.35002        1.52855
H          1.34851        5.00977        2.13265
C          3.18122        3.22957        3.28496
H          4.05295        3.89971        3.35242
H          3.51296        2.22307        3.58304
H          2.43927        3.56882        4.02857
C          3.74217       -2.02422       -0.62414
O          3.80326       -1.25010       -1.72378
C          4.50834       -1.67745       -2.84936
H          4.36862       -0.90175       -3.61278
H          5.58859       -1.78581       -2.64422
H          4.12009       -2.63690       -3.23458
C          2.77828       -2.35752        1.54918
O          1.89651       -1.93812        2.48895
C          1.88371       -2.54321        3.74620
H          1.18431       -1.96158        4.36141
H          2.88151       -2.52731        4.21928
H          1.53307       -3.59057        3.70377
C          3.48428       -3.56135        1.68186
H          3.37170       -4.17435        2.57550
C          4.44625       -3.22743       -0.50731
H          5.08573       -3.57615       -1.31750
C          4.32110       -3.98140        0.65504
H          4.87087       -4.92015        0.75399
C          4.43629        1.17946       -0.33794
O          4.83686        0.34819        0.64355
C          6.19411        0.07293        0.82152
H          6.25149       -0.72962        1.56841
H          6.66473       -0.27779       -0.11348
H          6.75051        0.95166        1.19385
C          2.58419        2.19034       -1.49434
O          1.25188        2.32811       -1.60826
C          0.71914        3.26271       -2.50232
H         -0.37089        3.15966       -2.43986
H          1.02602        3.05486       -3.54040
H          1.00385        4.29505       -2.23085
C          3.47499        3.03778       -2.17229
H          3.10321        3.78817       -2.86809
C          5.33225        2.01768       -1.00997
H          6.39956        1.98086       -0.79453
C          4.83828        2.92937       -1.93640
H          5.53000        3.59000       -2.46482
H         -2.52650        1.30422       -2.08266
H         -1.81140        2.33669       -0.82992
C         -3.98535        2.07511       -0.68580
H         -4.69150        1.23855       -0.81490
H         -4.04027        2.36289        0.37699
C         -4.45702        3.24310       -1.55666
H         -4.33767        2.93417       -2.61258
C         -5.93596        3.52329       -1.31595
H         -6.55037        2.63177       -1.51614
H         -6.30438        4.33991       -1.95684
H         -6.11092        3.81782       -0.26733
C         -3.62924        4.50597       -1.34505
H         -3.95823        5.31641       -2.01430
H         -2.55807        4.33603       -1.53179
H         -3.73588        4.86883       -0.30890
C         -4.47623       -1.33283        0.53338
O         -4.46542       -0.58225        1.65051
C         -5.23192       -0.95231        2.75646
H         -4.95264       -0.26772        3.56807
H         -6.31495       -0.85714        2.56091
H         -5.01953       -1.98832        3.07501
C         -3.65845       -1.64261       -1.70603
O         -2.88057       -1.16350       -2.68862
C         -2.67993       -1.90241       -3.86023
H         -1.89363       -1.38011       -4.41888
H         -3.59409       -1.94624       -4.47817
H         -2.34612       -2.93005       -3.63675
C         -4.59170       -2.66645       -1.91799
H         -4.66642       -3.15590       -2.88854
C         -5.41944       -2.34877        0.33115
H         -6.14397       -2.59544        1.10662
C         -5.45038       -3.02178       -0.88574
H         -6.18536       -3.81480       -1.04379
C         -1.79800       -0.83373        2.44708
O         -1.93195       -2.01066        1.80740
C         -1.79585       -3.21339        2.50281
H         -1.94736       -4.01390        1.76801
H         -0.79061       -3.31604        2.94448
H         -2.55218       -3.31490        3.30123
C         -1.80496        1.56269        2.26341
O         -1.87149        2.66016        1.47937
C         -1.83441        3.93282        2.05691
H         -1.91142        4.64989        1.23016
H         -0.88800        4.11405        2.59327
H         -2.67892        4.09189        2.75027
C         -1.61403        1.66158        3.65095
H         -1.53710        2.63686        4.12897
C         -1.58757       -0.74663        3.82500
H         -1.50707       -1.64616        4.43423
C         -1.50159        0.51024        4.41704
H         -1.34273        0.59265        5.49475
