102
Cat797.ts34.5.log	Energy: -1683272.5700210
C         -2.34347       -1.52895       -2.55882
H         -2.39225       -2.61813       -2.64113
H         -3.32325       -1.04009       -2.55050
C         -1.25377       -0.87492       -3.23030
H         -0.48923       -1.47948       -3.72764
H         -1.47302        0.05327       -3.77441
H         -0.59761        0.08465       -2.20593
Ir        -0.97570       -1.01130       -0.96999
C         -2.12831        2.40545       -0.92302
C         -4.14845        0.42362       -0.50821
C         -2.35259        1.04415        1.67732
C          1.51497        0.79376        0.79361
C          1.53704       -2.16550        1.11507
C          2.60957       -0.84293       -1.27520
P          1.19225       -0.82403       -0.08283
P         -2.36200        0.72126       -0.14569
C         -1.25139       -2.64706       -0.08690
O         -1.46403       -3.65066        0.44675
H         -2.24637        2.21833       -2.00011
H         -2.93733        3.08247       -0.61682
C         -0.78872        3.03037       -0.68661
C         -0.47444        3.64154        0.53488
H         -1.20727        3.65149        1.34381
C          0.18081        3.01588       -1.69428
H         -0.05808        2.53994       -2.65019
C          0.77698        4.21752        0.72715
H          1.01900        4.68177        1.68590
C          1.44460        3.59438       -1.51899
C          2.46162        3.54595       -2.62191
H          2.71817        2.50579       -2.88023
H          2.08061        4.02334       -3.53853
H          3.38983        4.05912       -2.33421
C          1.72964        4.19661       -0.29041
H          2.71369        4.64134       -0.12332
C         -4.76663        1.09458       -1.57534
H         -4.22399        1.85800       -2.13276
C         -4.87981       -0.57273        0.18312
C         -4.30907       -1.36377        1.32163
H         -4.26676       -0.76877        2.24695
H         -3.28416       -1.69514        1.10706
H         -4.92234       -2.25380        1.51799
C         -6.07736        0.81799       -1.95626
H         -6.52561        1.36073       -2.79181
C         -6.19678       -0.82889       -0.21494
H         -6.75918       -1.59774        0.32204
C         -6.80172       -0.14836       -1.26765
H         -7.83108       -0.37964       -1.55124
C         -1.52356        0.19991        2.42548
H         -0.97743       -0.57893        1.88569
C         -3.13856        2.00804        2.35060
C         -4.10785        2.93061        1.66803
H         -4.64131        2.43481        0.84624
H         -3.59941        3.81597        1.25121
H         -4.85348        3.29967        2.38563
C         -1.41894        0.30552        3.80802
H         -0.77215       -0.38050        4.36019
C         -3.01221        2.10509        3.74360
H         -3.61548        2.84978        4.27042
C         -2.16172        1.27773        4.47117
H         -2.09744        1.38244        5.55698
H          1.16961        1.50060        0.02733
H          0.78187        0.86188        1.60848
C          2.89215        1.16264        1.24482
C          3.27276        1.09475        2.59151
H          2.54418        0.79555        3.34825
C          3.83773        1.60130        0.31193
H          3.54509        1.68517       -0.73621
C          4.57169        1.41658        2.97469
H          4.85737        1.35731        4.02781
C          5.14886        1.91929        0.67558
C          6.13098        2.35224       -0.37371
H          5.79885        3.27660       -0.87348
H          7.12694        2.53814        0.05221
H          6.22853        1.58378       -1.15740
C          5.50934        1.81345        2.02271
H          6.53053        2.05561        2.32960
C          1.46408       -1.89066        2.48570
H          1.29461       -0.86862        2.82239
C          1.73359       -3.49724        0.68355
C          1.79610       -3.87963       -0.76568
H          2.77719       -3.64031       -1.20613
H          1.04146       -3.33301       -1.35368
H          1.62269       -4.95754       -0.88778
C          1.60516       -2.89625        3.43678
H          1.54821       -2.65322        4.50051
C          1.87419       -4.49148        1.65817
H          2.02130       -5.52404        1.33008
C          1.81838       -4.20639        3.01915
H          1.92938       -5.01011        3.75077
C          2.30325       -0.39296       -2.56527
H          1.26494       -0.14787       -2.78995
C          3.95183       -1.17208       -0.96237
C          4.43488       -1.65681        0.37437
H          3.95861       -1.13539        1.21159
H          5.51980       -1.50427        0.45600
H          4.23332       -2.73057        0.51165
C          3.27455       -0.25342       -3.55175
H          2.99833        0.10563       -4.54596
C          4.90972       -1.04261       -1.97973
H          5.94658       -1.29988       -1.74627
C          4.59207       -0.58832       -3.25539
H          5.37392       -0.49696       -4.01336
