104
Cat723.ts34.5.log	Energy: -1730173.3520181
C         -1.09256       -3.31258       -1.25053
H         -1.30627       -4.13333       -0.56120
H         -1.91401       -3.10247       -1.94324
C          0.26031       -3.18358       -1.73473
H          1.04856       -3.81675       -1.31802
H          0.41059       -2.97352       -2.80092
H          0.55572       -1.63732       -1.64156
Ir        -0.26556       -1.63286       -0.17447
C         -1.81948        0.53454       -2.61094
O         -3.40339       -0.62487       -0.89744
O         -1.81920        1.26046        0.01418
C          0.85309        0.85659        2.04982
O          2.71505       -0.83294        1.23841
O          1.82504        0.82035       -0.54070
P          1.28489       -0.21374        0.64883
P         -1.80534       -0.13570       -0.91522
C         -0.62169       -2.36995        1.54603
O         -0.85473       -2.77099        2.60348
H         -2.76461        1.05754       -2.82131
H         -1.80203       -0.36723       -3.24520
C         -0.59566        1.41807       -2.84231
H         -0.86501        2.45789       -2.59456
H          0.20860        1.13553       -2.14117
C         -0.01154        1.36302       -4.25546
H         -0.83410        1.52176       -4.97840
C          1.00755        2.48173       -4.43978
H          0.54900        3.47157       -4.28960
H          1.45067        2.46384       -5.44763
H          1.82828        2.38309       -3.70969
C          0.62288        0.00539       -4.54211
H          1.02019       -0.04246       -5.56773
H         -0.09427       -0.82255       -4.42887
H          1.45707       -0.18192       -3.84522
C         -3.91144       -1.41593        0.09968
C         -3.69673       -1.11298        1.44226
H         -3.10414       -0.23318        1.70192
C         -4.66629       -2.52779       -0.26953
H         -4.81776       -2.73945       -1.32936
C         -4.21486       -1.93757        2.44656
C         -3.91022       -1.64653        3.88627
H         -3.96599       -0.56870        4.10039
H         -4.60222       -2.16939        4.56137
H         -2.88687       -1.97850        4.12622
C         -5.20171       -3.33773        0.72697
H         -5.79777       -4.21085        0.45044
C         -4.97439       -3.05077        2.07255
H         -5.39001       -3.70217        2.84550
C         -2.52068        2.41456       -0.20105
C         -3.83240        2.42661       -0.67433
H         -4.32878        1.48075       -0.89602
C         -1.87698        3.61243        0.12530
H         -0.85836        3.58124        0.51485
C         -4.51109        3.63970       -0.85048
C         -5.91885        3.63463       -1.37246
H         -5.95663        3.25429       -2.40597
H         -6.56491        2.98122       -0.76591
H         -6.35438        4.64337       -1.36900
C         -2.55262        4.81548       -0.04085
H         -2.05387        5.75303        0.21664
C         -3.85838        4.83348       -0.53123
H         -4.38009        5.78501       -0.65993
H          0.26782        0.19304        2.70985
H          0.11561        1.54881        1.61221
C          1.94804        1.56381        2.83576
H          2.65144        0.80808        3.21889
H          2.53548        2.21987        2.17520
C          1.41725        2.40601        3.99880
H          0.82544        1.74210        4.65738
C          2.58353        2.95826        4.81038
H          3.23062        2.15050        5.18620
H          2.23257        3.54123        5.67595
H          3.20727        3.62330        4.18970
C          0.50633        3.53325        3.52260
H          0.17370        4.15774        4.36605
H         -0.39786        3.15787        3.02018
H          1.03976        4.18694        2.81129
C          3.33306       -1.89794        0.63853
C          3.52898       -1.94034       -0.74091
H          3.17687       -1.11030       -1.35701
C          3.76992       -2.94284        1.45201
H          3.59257       -2.88729        2.52711
C          4.15527       -3.04202       -1.33559
C          4.33188       -3.08270       -2.82601
H          3.35751       -3.04468       -3.33937
H          4.91640       -2.21989       -3.18249
H          4.84764       -3.99804       -3.14756
C          4.40452       -4.03223        0.86540
H          4.74868       -4.85770        1.49310
C          4.59287       -4.08659       -0.51647
H          5.08491       -4.95325       -0.96509
C          2.61545        1.92356       -0.34914
C          3.96957        1.78861       -0.05179
H          4.39586        0.78886        0.04856
C          2.03547        3.18374       -0.49771
H          0.97867        3.25528       -0.75784
C          4.76380        2.92337        0.14884
C          6.21217        2.77077        0.51218
H          6.32005        2.37995        1.53703
H          6.71964        2.06057       -0.15810
H          6.74477        3.73050        0.46176
C          2.82451        4.31357       -0.30576
H          2.38178        5.30648       -0.41555
C          4.17382        4.18629        0.02357
H          4.78259        5.08097        0.17647
