86
Cat734.ts34.5.log	Energy: -1629698.7044831
C         -1.06048        0.71349       -3.16531
H         -0.67951        0.20290       -4.05442
H         -2.15291        0.72478       -3.08890
C         -0.34028        1.87617       -2.71507
H          0.60038        2.15413       -3.19907
H         -0.92198        2.75189       -2.40362
H         -0.26363        1.69996       -1.16251
Ir         0.01621        0.06583       -1.41918
C         -2.05305        0.92018        1.34129
C         -3.49675       -0.39189       -0.79447
C         -1.90840       -1.89009        0.90894
C          1.93083       -0.55569        1.56296
C          3.51192       -0.04982       -0.75489
C          2.10418        2.09468        0.49188
P          1.86430        0.34661       -0.03863
P         -1.83054       -0.29455       -0.01382
C          0.66233       -1.54537       -2.15647
O          1.06655       -2.53761       -2.59683
C         -1.67985        0.63740        2.65759
H         -1.35254       -0.37236        2.91187
C         -2.42629        2.24558        1.02132
O         -2.69579        2.48148       -0.27751
C         -3.11836        3.75393       -0.67918
H         -4.05180        4.05230       -0.17117
H         -3.30597        3.69214       -1.75836
H         -2.34460        4.51846       -0.48998
C         -1.69884        1.62277        3.64571
H         -1.39472        1.37516        4.66473
C         -2.47640        3.22790        2.01376
H         -2.78336        4.24525        1.77011
C         -2.10960        2.91118        3.32343
H         -2.14112        3.68885        4.09023
C         -3.59879       -1.16401       -1.95770
C         -4.65012        0.20009       -0.26977
C         -5.97538       -0.74571       -2.05735
C         -5.88106        0.02626       -0.90009
C         -4.83065       -1.34460       -2.58218
H         -2.69524       -1.62103       -2.37190
H         -4.89505       -1.95287       -3.48772
H         -6.94138       -0.88081       -2.54995
H         -6.77496        0.49491       -0.48034
H         -4.59060        0.79640        0.64387
C         -0.93112       -2.86308        0.70601
C         -2.98580       -2.17074        1.76293
C         -2.08629       -4.36603        2.20691
C         -3.06989       -3.39628        2.41392
C         -1.02356       -4.09858        1.34989
H         -0.10136       -2.64133        0.03310
H         -0.25918       -4.85978        1.17649
H         -2.15614       -5.33320        2.71089
H         -3.91253       -3.60204        3.07859
H         -3.76881       -1.42369        1.91451
C          1.73694        0.04881        2.80460
H          1.59871        1.12993        2.85882
C          2.12065       -1.95336        1.51377
O          2.28368       -2.46902        0.28223
C          2.68458       -3.79979        0.11179
H          3.65891       -3.98844        0.59421
H          2.76998       -3.95383       -0.97040
H          1.94005       -4.50739        0.51424
C          1.72162       -0.70653        3.97874
H          1.56515       -0.21333        4.94039
C          2.12954       -2.70978        2.68646
H          2.28287       -3.78840        2.64653
C          1.92009       -2.08141        3.91443
H          1.91606       -2.68165        4.82738
C          3.66960       -0.02741       -2.14181
C          4.61772       -0.33304        0.05644
C          6.01180       -0.56879       -1.90298
C          5.86007       -0.59426       -0.51559
C          4.91557       -0.28261       -2.71391
H          2.79324        0.17805       -2.76377
H          5.02640       -0.26627       -3.80085
H          6.98679       -0.77629       -2.35097
H          6.71621       -0.81958        0.12536
H          4.50249       -0.35205        1.14342
C          1.01304        2.78407        1.03827
C          3.32090        2.76948        0.34459
C          2.35409        4.77611        1.29037
C          3.44044        4.10349        0.73610
C          1.13846        4.10916        1.44417
H          0.05437        2.27571        1.14625
H          0.27492        4.61832        1.87892
H          2.45314        5.81965        1.59926
H          4.39522        4.61859        0.60450
H          4.18224        2.25704       -0.08686
