98
Cat738.ts34.5.log	Energy: -1728307.4863908
C         -0.98051        0.88355       -3.15480
H         -0.68545        0.32450       -4.04751
H         -2.06012        1.04382       -3.06351
C         -0.10184        1.93881       -2.71983
H          0.86065        2.08477       -3.21856
H         -0.55418        2.88699       -2.40559
H         -0.03295        1.75809       -1.16574
Ir         0.02244        0.10119       -1.42076
C         -1.90999        1.23614        1.33765
C         -3.51596        0.09276       -0.77536
C         -2.11844       -1.57713        0.93213
C          1.81448       -0.79355        1.56415
C          3.46141       -0.49780       -0.74602
C          2.36556        1.80961        0.52083
P          1.88620        0.12004       -0.03126
P         -1.84878       -0.01318       -0.00310
C          0.45764       -1.57468       -2.16797
O          0.73295       -2.60803       -2.61419
C         -1.56059        0.92699        2.65445
H         -1.35498       -0.11182        2.91909
C         -2.12168        2.59328        1.00322
O         -2.37195        2.84485       -0.29663
C         -2.64120        4.15355       -0.71164
H         -3.52733        4.56896       -0.20096
H         -2.84400        4.10177       -1.78863
H         -1.77938        4.82167       -0.53796
C         -1.44957        1.91943        3.62938
H         -1.16742        1.64918        4.64902
C         -2.04098        3.58690        1.98240
H         -2.22301        4.63110        1.72713
C         -1.70292        3.24428        3.29332
H         -1.63130        4.02956        4.04963
C         -3.72359       -0.66036       -1.93668
H         -2.88662       -1.22400       -2.35951
C         -4.59092        0.81082       -0.24571
H         -4.46127        1.39497        0.66874
C         -4.97240       -0.69425       -2.54776
H         -5.11177       -1.29514       -3.45113
C         -5.83739        0.78033       -0.86721
H         -6.66642        1.34844       -0.43484
C         -6.05225        0.03112       -2.02888
C         -7.38775        0.02074       -2.71377
H         -8.19065        0.34974       -2.03856
H         -7.39113        0.69716       -3.58503
H         -7.64200       -0.98369       -3.08439
C         -3.19020       -1.70820        1.82929
H         -3.85192       -0.85840        2.01461
C         -1.31210       -2.68605        0.69123
H         -0.48519       -2.59257       -0.01437
C         -3.42474       -2.91015        2.48146
H         -4.26293       -2.98908        3.17999
C         -1.56362       -3.89732        1.33777
H         -0.92833       -4.76211        1.12723
C         -2.61277       -4.03090        2.24736
C         -2.87403       -5.32554        2.95930
H         -2.21290       -6.12565        2.59780
H         -2.71279       -5.22034        4.04459
H         -3.91527       -5.65603        2.81956
C          1.69590       -0.16927        2.80549
H          1.70792        0.92073        2.85907
C          1.80917       -2.20378        1.51344
O          1.91058       -2.73636        0.28269
C          2.12618       -4.10894        0.11385
H          3.06208       -4.42974        0.60293
H          2.19743       -4.27316       -0.96794
H          1.28908       -4.70805        0.51048
C          1.56523       -0.91606        3.97795
H          1.47010       -0.40693        4.93939
C          1.70254       -2.95521        2.68471
H          1.70367       -4.04461        2.64355
C          1.57114       -2.30518        3.91215
H          1.47545       -2.90006        4.82368
C          3.63869       -0.46470       -2.12945
H          2.81143       -0.11610       -2.75486
C          4.51108       -0.96098        0.05617
H          4.39212       -0.99048        1.14260
C          4.83885       -0.88357       -2.69965
H          4.95747       -0.84958       -3.78636
C          5.70427       -1.38487       -0.51905
H          6.51261       -1.74573        0.12382
C          5.89028       -1.35603       -1.90802
C          7.16689       -1.84847       -2.52450
H          8.03583       -1.62278       -1.88878
H          7.14022       -2.94254       -2.66248
H          7.33757       -1.39860       -3.51307
C          3.67830        2.28553        0.45542
H          4.47341        1.64763        0.06567
C          1.37528        2.66553        1.02096
H          0.34236        2.32041        1.07540
C          3.98558        3.57868        0.87731
H          5.01929        3.92964        0.80923
C          1.69086        3.94708        1.45521
H          0.89442        4.58127        1.85505
C          3.00324        4.43263        1.38613
C          3.33143        5.83134        1.81916
H          2.79117        6.10480        2.73802
H          4.40788        5.95536        2.00428
H          3.04343        6.56182        1.04460
