100
Cat718.ts34.5.log	Energy: -1541421.9825299
C          0.45172       -0.76175       -3.59909
H          0.01256       -0.30928       -4.49247
H          1.54760       -0.75308       -3.60285
C         -0.20539       -1.93836       -3.07228
H         -1.14974       -2.26206       -3.51973
H          0.42606       -2.79141       -2.78964
H         -0.23874       -1.71431       -1.55917
Ir        -0.58192       -0.07929       -1.84478
C          2.91417       -0.48580       -1.05906
C          1.91522        2.20056       -1.28932
C          1.41317        0.66726        1.16369
C         -2.24765        0.67642        1.26641
C         -3.95353        0.39421       -1.05032
C         -2.83516       -1.92525        0.20711
P         -2.33585       -0.22078       -0.34179
P          1.39337        0.49741       -0.71478
C         -1.32519        1.46041       -2.62759
O         -1.76112        2.44471       -3.05889
H          3.74092       -0.08127       -0.45431
H          3.17136       -0.29878       -2.11381
C          2.74097       -1.97859       -0.78687
H          2.01814       -2.13450        0.02905
H          2.29420       -2.46657       -1.67063
C          4.04663       -2.68674       -0.42303
H          4.46540       -2.15514        0.45127
C          3.77898       -4.12525       -0.00121
H          3.09690       -4.16050        0.86193
H          4.70966       -4.64109        0.28251
H          3.31695       -4.70025       -0.82215
C          5.06674       -2.62007       -1.55347
H          6.00787       -3.11780       -1.27201
H          5.31147       -1.58129       -1.82328
H          4.68313       -3.11979       -2.45949
H          1.02558        2.83336       -1.15134
H          2.04135        2.08209       -2.37703
C          3.12029        2.81109       -0.65025
C          4.41732        2.47717       -1.06658
H          4.55090        1.79926       -1.91274
C          2.98383        3.71462        0.41309
H          1.98278        4.01514        0.73356
C          5.53493        2.99756       -0.41920
H          6.53541        2.71841       -0.75856
C          4.09957        4.24024        1.06193
H          3.96510        4.93984        1.89030
C          5.38157        3.87537        0.65437
H          6.25848        4.28258        1.16277
H          0.44832        0.26755        1.49568
H          1.40921        1.74755        1.37283
C          2.51652       -0.00880        1.91965
C          3.79079        0.56050        2.04708
H          3.99367        1.53831        1.60664
C          2.28572       -1.25796        2.50986
H          1.29640       -1.71395        2.42720
C          4.80372       -0.10818        2.73178
H          5.78949        0.35566        2.81761
C          3.29750       -1.92815        3.19306
H          3.09106       -2.90323        3.64177
C          4.56483       -1.35740        3.30401
H          5.36128       -1.88078        3.83834
H         -1.50335        0.13995        1.87748
H         -3.21637        0.57306        1.78152
C         -1.83968        2.13152        1.09997
H         -0.94900        2.16788        0.45034
H         -2.61986        2.68415        0.54558
C         -1.54726        2.86788        2.40822
H         -0.76380        2.29428        2.93913
C         -0.99474        4.25819        2.11894
H         -0.09144        4.20769        1.49124
H         -0.73198        4.79060        3.04598
H         -1.73540        4.87116        1.57918
C         -2.76845        2.94663        3.31799
H         -2.53158        3.47211        4.25600
H         -3.15324        1.95084        3.58417
H         -3.58672        3.49923        2.82587
H         -4.09755       -0.20346       -1.96310
H         -3.74899        1.42200       -1.38631
C         -5.15203        0.34003       -0.15617
C         -5.46791        1.40962        0.69325
H         -4.85333        2.31291        0.66768
C         -5.97773       -0.79252       -0.12269
H         -5.76579       -1.62893       -0.79430
C         -6.55502        1.34234        1.56142
H         -6.77973        2.18996        2.21352
C         -7.06726       -0.86304        0.74280
H         -7.69776       -1.75553        0.74820
C         -7.35699        0.20243        1.59381
H         -8.21104        0.14850        2.27284
H         -3.11520       -2.45197       -0.71823
H         -3.74441       -1.81835        0.81894
C         -1.79278       -2.69798        0.95425
C         -1.68307       -2.59442        2.34804
H         -2.37098       -1.94259        2.89314
C         -0.91936       -3.56470        0.28511
H         -1.00616       -3.67814       -0.79758
C         -0.73102       -3.33194        3.04947
H         -0.66824       -3.24056        4.13648
C          0.03487       -4.30153        0.98236
H          0.70210       -4.97398        0.43880
C          0.13340       -4.18841        2.36826
H          0.87778       -4.77093        2.91635
