90
Cat795.ts34.5.log	Energy: -2737961.0073679
C          1.86932       -3.52715       -0.06785
H          2.06376       -4.09699       -0.98127
H          2.74593       -3.45140        0.58653
C          0.57785       -3.72100        0.55832
H         -0.18554       -4.30646        0.03724
H          0.54963       -3.90590        1.64017
H          0.16522       -2.30831        1.00056
Ir         0.75421       -1.73557       -0.47934
C          3.15202       -0.26800        2.00863
C          3.82557       -0.05557       -0.66948
C          1.70379        1.56584        0.23837
C         -1.40675        0.38652       -2.22898
C         -2.71752       -1.55234       -0.54755
C         -1.54015        0.68106        0.76037
P         -1.21405       -0.49946       -0.60381
P          2.28576       -0.16940        0.34286
C          0.93330       -1.83815       -2.35442
O          1.04463       -1.87947       -3.50556
H          3.82888       -1.12666        1.86891
H          3.78954        0.62346        2.11274
C          2.30809       -0.47620        3.22803
C          2.21768        0.49928        4.22894
H          2.78483        1.42911        4.13272
C          1.60762       -1.67316        3.40224
H          1.71128       -2.45203        2.64492
C          1.42703        0.28317        5.35445
H          1.36841        1.04879        6.13179
C          0.78925       -1.90033        4.51350
C          0.00508       -3.17502        4.62890
H         -0.86718       -3.16102        3.95370
H          0.61458       -4.04870        4.35246
H         -0.37105       -3.33001        5.64968
C          0.70706       -0.90245        5.49142
H          0.08210       -1.06232        6.37420
C          4.65587        1.07159       -0.59719
H          4.36865        1.92380        0.02483
C          4.21046       -1.12051       -1.48777
H          3.56126       -1.99594       -1.55650
C          5.83882        1.13792       -1.32502
H          6.48075        2.01894       -1.27529
C          5.39561       -1.07197       -2.21817
H          5.69199       -1.90307       -2.85998
C          6.20299        0.05980       -2.13289
Cl         7.67284        0.13575       -3.04407
C          1.52168        2.11539       -1.03941
H          1.83733        1.54807       -1.91982
C          1.31271        2.31779        1.35030
H          1.43129        1.91770        2.35642
C          0.93938        3.36630       -1.20635
H          0.80380        3.79240       -2.20208
C          0.71755        3.56847        1.19741
H          0.38349        4.13352        2.06878
C          0.51671        4.07613       -0.08204
Cl        -0.30588        5.59005       -0.28514
H         -0.50628        1.01131       -2.30948
H         -1.27638       -0.43549       -2.95073
C         -2.63810        1.17949       -2.55018
C         -3.87633        0.56475       -2.77007
H         -3.96210       -0.52269       -2.72926
C         -2.55854        2.57436       -2.64384
H         -1.59242        3.05973       -2.47810
C         -5.00147        1.34109       -3.03730
H         -5.96624        0.85399       -3.19881
C         -3.67737        3.36884       -2.90939
C         -3.54466        4.86119       -3.00561
H         -4.48362        5.36747       -2.73909
H         -2.74944        5.23522       -2.34399
H         -3.28785        5.16785       -4.03341
C         -4.90835        2.72979       -3.09707
H         -5.80155        3.32756       -3.29832
C         -2.70137       -2.76266       -1.25183
H         -1.77745       -3.07153       -1.75059
C         -3.88659       -1.17256        0.11970
H         -3.91969       -0.23330        0.67532
C         -3.83302       -3.56869       -1.31313
H         -3.82445       -4.50882       -1.86706
C         -5.02185       -1.97812        0.07966
H         -5.93433       -1.68451        0.60095
C         -4.99045       -3.16897       -0.64342
Cl        -6.40078       -4.17095       -0.70342
C         -2.17452        1.91864        0.60993
H         -2.51432        2.25460       -0.36752
C         -1.14400        0.28448        2.04459
H         -0.62300       -0.66590        2.17915
C         -2.37583        2.75671        1.70433
H         -2.83778        3.73632        1.57238
C         -1.35741        1.10049        3.14898
H         -1.02499        0.78702        4.13888
C         -1.95751        2.34505        2.96619
Cl        -2.14297        3.41067        4.32055
