102
Cat745.ts34.5.log	Energy: -1917060.9128676
C         -1.36796        1.29090       -2.75304
H         -1.24107        0.78095       -3.71140
H         -2.41121        1.39771       -2.44378
C         -0.44926        2.34947       -2.43174
H          0.40742        2.53959       -3.08276
H         -0.84228        3.26958       -1.98384
H         -0.08600        2.09050       -0.93973
Ir        -0.03047        0.44377       -1.28345
C         -1.77593        1.03790        1.80816
O         -3.21637        0.01521       -0.09733
O         -1.42458       -1.49235        0.97776
C          2.07675       -0.85944        1.28685
O          3.23308        0.03368       -1.02833
O          2.33675        1.66240        0.76087
P          1.89000        0.30371       -0.09832
P         -1.60024        0.02307        0.30475
C          0.35825       -1.11828       -2.29883
O          0.55707       -2.09851       -2.87611
C         -1.42502        0.54219        3.06458
H         -1.08894       -0.49344        3.14683
C         -2.17300        2.38525        1.68499
O         -2.44474        2.81575        0.43746
C         -2.67370        4.18195        0.21825
H         -3.57760        4.53522        0.74333
H         -2.82583        4.30173       -0.86176
H         -1.80569        4.78838        0.52963
C         -1.50104        1.34942        4.19986
H         -1.23029        0.94511        5.17712
C         -2.26118        3.19191        2.82304
H         -2.57999        4.23115        2.74289
C         -1.93279        2.66597        4.07312
H         -2.00641        3.30658        4.95525
C         -3.72755       -0.51989       -1.24544
C         -3.18154       -1.64939       -1.85142
H         -2.31165       -2.13431       -1.40876
C         -4.85679        0.12383       -1.77658
C         -5.41228        1.32985       -1.08434
H         -5.83549        1.06054       -0.10295
H         -4.61803        2.06416       -0.88194
H         -6.20176        1.80375       -1.68353
C         -3.75133       -2.14432       -3.02280
H         -3.31530       -3.02450       -3.50051
C         -5.41198       -0.39946       -2.94548
H         -6.28986        0.09142       -3.37483
C         -4.86665       -1.51982       -3.57368
H         -5.31711       -1.90459       -4.49128
C         -2.40019       -2.33481        1.44651
C         -3.54699       -1.89274        2.10561
H         -3.71406       -0.82662        2.25203
C         -2.16894       -3.70332        1.22642
C         -0.92342       -4.14265        0.52323
H         -0.79341       -3.62451       -0.43938
H         -0.03697       -3.89123        1.12540
H         -0.93319       -5.22663        0.34387
C         -4.48129       -2.82256        2.55803
H         -5.38046       -2.47188        3.06994
C         -3.12108       -4.61060        1.69506
H         -2.95309       -5.67834        1.52916
C         -4.27188       -4.18347        2.35571
H         -5.00437       -4.91357        2.70686
C          1.98898       -0.43598        2.61329
H          1.86388        0.62690        2.81884
C          2.23020       -2.23157        1.01065
O          2.24734       -2.57005       -0.28852
C          2.55588       -3.88541       -0.66756
H          3.58273       -4.15229       -0.36539
H          2.47539       -3.91491       -1.76029
H          1.84303       -4.60978       -0.24143
C          2.07095       -1.35024        3.66204
H          1.99910       -1.00472        4.69514
C          2.35312       -3.14507        2.06111
H          2.51071       -4.20408        1.85729
C          2.26473       -2.69889        3.37896
H          2.34998       -3.42362        4.19221
C          4.42596       -0.50972       -0.63055
C          5.02731       -0.18046        0.58260
H          4.54621        0.54409        1.24007
C          5.02374       -1.40819       -1.52934
C          4.37232       -1.69073       -2.84726
H          3.30012       -1.89810       -2.72666
H          4.43998       -0.81429       -3.51221
H          4.85263       -2.53956       -3.35345
C          6.23533       -0.78018        0.93457
H          6.70364       -0.52752        1.88859
C          6.23502       -1.99118       -1.14953
H          6.71419       -2.69709       -1.83384
C          6.83811       -1.69198        0.07259
H          7.78359       -2.16624        0.34518
C          2.12126        2.93311        0.30340
C          2.48033        3.30793       -0.99050
H          2.94310        2.56933       -1.64768
C          1.54435        3.84476        1.19958
C          1.22393        3.41670        2.59639
H          0.73917        4.22472        3.15923
H          0.55077        2.54727        2.60263
H          2.13866        3.12035        3.13438
C          2.23225        4.60878       -1.42333
H          2.50851        4.90194       -2.43876
C          1.30852        5.14344        0.73883
H          0.86165        5.86907        1.42459
C          1.63722        5.52737       -0.56138
H          1.44098        6.54877       -0.89526
