90
Cat773.ts34.5.log	Energy: -2067472.4045584
C          0.33315       -3.40448       -0.92546
H          0.75564       -4.17734       -0.27868
H         -0.72031       -3.56272       -1.17400
C          1.18934       -2.81501       -1.91211
H          2.25494       -3.05882       -1.93190
H          0.77568       -2.61386       -2.90628
H          0.94530       -1.23418       -1.78843
Ir         0.83458       -1.44846       -0.12773
O         -2.46220       -1.87600        0.39602
O         -1.61782        0.48827        0.94428
O         -2.08341       -0.32254       -1.47745
O          1.46763        1.90423        0.35216
O          3.02026        0.40124        1.48033
O          3.11586        0.80770       -1.06301
P          2.06830        0.39225        0.15312
P         -1.32434       -0.76177       -0.08708
C          1.41851       -2.18313        1.53812
O          1.75923       -2.62590        2.54224
C         -2.25283       -2.73986        1.44093
C         -1.70240       -2.30841        2.64583
H         -1.42159       -1.25978        2.76470
C         -2.62809       -4.07083        1.26211
H         -3.05949       -4.38076        0.30873
C         -1.48924       -3.21511        3.69103
C         -0.82766       -2.75441        4.95580
H          0.25380       -2.62279        4.78855
H         -1.22820       -1.78557        5.28973
H         -0.95807       -3.48139        5.76938
C         -2.43819       -4.96858        2.30708
H         -2.73177       -6.01336        2.18031
C         -1.86823       -4.54835        3.50872
H         -1.71360       -5.26657        4.31768
C         -2.78571        1.19529        1.13136
C         -3.98137        0.57366        1.49377
H         -4.01949       -0.50676        1.62617
C         -2.72454        2.57784        0.97063
H         -1.77574        3.03540        0.68810
C         -5.13152        1.34181        1.65144
H         -6.08514        0.88195        1.91575
C         -3.87111        3.34744        1.13855
H         -3.85102        4.43083        1.00800
C         -5.06543        2.71743        1.46642
F         -6.17027        3.44872        1.61204
C         -3.42070       -0.03936       -1.67440
C         -3.80163        1.28764       -1.86536
H         -3.04520        2.07107       -1.81356
C         -4.36268       -1.06417       -1.73216
H         -4.04175       -2.09515       -1.58825
C         -5.13947        1.59971       -2.07984
H         -5.46758        2.63201       -2.21173
C         -5.70340       -0.75484       -1.94777
H         -6.46626       -1.53423       -1.98924
C         -6.07646        0.57314       -2.11229
F         -7.36059        0.86933       -2.31013
C          0.72130        2.63076       -0.52785
C          0.23614        2.11495       -1.72730
H          0.45315        1.08375       -2.00749
C          0.44313        3.94851       -0.15777
H          0.84712        4.32777        0.78226
C         -0.55562        2.90361       -2.57054
C         -1.04872        2.33117       -3.86763
H         -0.25194        2.34975       -4.62972
H         -1.36186        1.28409       -3.74282
H         -1.89964        2.90142       -4.26583
C         -0.34318        4.73312       -0.99440
H         -0.56751        5.76391       -0.70959
C         -0.84861        4.21640       -2.18844
H         -1.46815        4.84223       -2.83552
C          3.74142        1.49845        1.90403
C          3.23405        2.27548        2.94277
H          2.26357        2.01968        3.37042
C          4.97323        1.79607        1.32620
H          5.35185        1.17987        0.50994
C          3.96693        3.35965        3.41535
H          3.59865        3.98539        4.23016
C          5.70810        2.88235        1.79463
H          6.67653        3.14155        1.36357
C          5.19566        3.65033        2.83283
F          5.89836        4.68904        3.28242
C          3.67626       -0.13163       -1.88405
C          3.46513       -0.01786       -3.25667
H          2.85939        0.81031       -3.62907
C          4.44016       -1.18052       -1.36850
H          4.58523       -1.26527       -0.28994
C          4.02448       -0.95193       -4.12503
H          3.87904       -0.88587       -5.20465
C          4.99774       -2.11867       -2.23341
H          5.59870       -2.94925       -1.85913
C          4.78211       -1.99322       -3.60133
F          5.31439       -2.89106       -4.42893
