102
Cat752.ts34.5.log	Energy: -1917055.9849730
C          1.03229       -3.33142        0.38426
H          1.16832       -4.01101       -0.46093
H          1.92681       -3.20065        0.99956
C         -0.25305       -3.32033        1.03058
H         -1.08630       -3.88724        0.60498
H         -0.27963       -3.28603        2.12602
H         -0.56918       -1.78630        1.23994
Ir         0.08614       -1.50763       -0.28187
C          1.26197        0.81806        2.16430
O          3.15275       -0.43257        0.85879
O          1.72866        1.26644       -0.47319
C         -1.65411        1.08592       -2.00242
O         -3.08454       -0.91514       -1.16477
O         -2.16751        0.61894        0.69519
P         -1.67291       -0.15556       -0.67246
P          1.56336       -0.01146        0.57437
C          0.40558       -1.84724       -2.12524
O          0.63714       -2.02592       -3.24297
C          0.84859        2.14593        2.24136
H          0.80198        2.73421        1.32591
C          1.27921        0.03417        3.33601
O          1.63494       -1.25575        3.17788
C          1.63911       -2.11354        4.28424
H          2.36126       -1.78608        5.05212
H          1.93966       -3.10047        3.91041
H          0.63849       -2.19242        4.74424
C          0.48957        2.71640        3.46237
H          0.17936        3.76250        3.50813
C          0.92009        0.60135        4.56151
H          0.93705        0.00742        5.47550
C          0.53196        1.94108        4.61676
H          0.25563        2.37513        5.58075
C          3.82887       -1.32009        0.06954
C          3.72114       -1.29699       -1.31858
H          3.08536       -0.54843       -1.79553
C          4.64815       -2.25355        0.70653
H          4.70870       -2.24323        1.79623
C          4.41224       -2.23187       -2.09894
C          4.26338       -2.20762       -3.59226
H          3.20231       -2.26593       -3.87990
H          4.66138       -1.27029       -4.01327
H          4.79766       -3.04373       -4.06459
C          5.34950       -3.17175       -0.06644
H          5.99348       -3.90819        0.42071
C          5.22677       -3.16920       -1.45692
H          5.77342       -3.90428       -2.05310
C          2.58821        2.32620       -0.48862
C          3.60043        2.53058        0.44747
H          3.75846        1.80214        1.24276
C          2.39288        3.23710       -1.53234
H          1.60556        3.03567       -2.26117
C          4.41886        3.66461        0.36419
C          5.50312        3.86908        1.38256
H          5.09054        3.88295        2.40371
H          6.23977        3.05083        1.34428
H          6.03867        4.81450        1.21849
C          3.20580        4.36072       -1.61412
H          3.05818        5.07455       -2.42859
C          4.21030        4.58026       -0.67024
H          4.84454        5.46732       -0.74243
C         -1.94557        0.64231       -3.29615
H         -2.25914       -0.39340       -3.43860
C         -1.25107        2.42373       -1.81196
O         -0.96458        2.81382       -0.55971
C         -0.91460        4.18527       -0.26311
H         -0.01197        4.65975       -0.68329
H         -0.88575        4.26308        0.83051
H         -1.81780        4.70331       -0.62674
C         -1.85817        1.49699       -4.39153
H         -2.09009        1.12929       -5.39265
C         -1.18210        3.28670       -2.91236
H         -0.88650        4.32649       -2.77217
C         -1.47877        2.82062       -4.19096
H         -1.40931        3.50738       -5.03806
C         -3.39125       -2.14670       -0.64443
C         -3.87757       -2.24879        0.65578
H         -4.00630       -1.33678        1.24307
C         -3.19327       -3.28413       -1.42597
H         -2.78672       -3.17749       -2.43256
C         -4.18234       -3.50046        1.20359
C         -4.71482       -3.60044        2.60375
H         -4.10295       -3.01357        3.30591
H         -5.74238       -3.20647        2.66508
H         -4.73474       -4.64181        2.95427
C         -3.50014       -4.53001       -0.88816
H         -3.34638       -5.43006       -1.48823
C         -3.98715       -4.63916        0.41508
H         -4.21641       -5.62483        0.82831
C         -3.09955        1.60817        0.83281
C         -4.12021        1.83329       -0.08797
H         -4.21624        1.18563       -0.96022
C         -2.98408        2.39907        1.97912
H         -2.17278        2.19028        2.67861
C         -5.02392        2.88688        0.10691
C         -6.10723        3.12879       -0.90413
H         -5.68224        3.29654       -1.90636
H         -6.77826        2.25854       -0.98186
H         -6.71748        4.00401       -0.64123
C         -3.88781        3.43487        2.17751
H         -3.80285        4.06073        3.06959
C         -4.89657        3.68702        1.24508
H         -5.59794        4.50936        1.40752
