110
Cat786.ts34.5.log	Energy: -1498167.3078441
C          0.63710       -3.29981       -1.66901
H          0.41743       -3.57836       -2.70331
H          1.70070       -3.39070       -1.41723
C         -0.32429       -3.69178       -0.66512
H         -1.26284       -4.15547       -0.98193
H          0.05475       -4.12874        0.26747
H         -0.50488       -2.42916        0.23589
Ir        -0.39296       -1.47765       -1.16288
C          2.32936       -1.44124        1.11769
C          2.95728       -0.55972       -1.58888
C          1.57903        1.22130        0.22618
C         -2.79240        1.08553       -1.54534
C         -3.73040       -1.15545       -0.04237
C         -1.92443        0.75738        1.18344
P         -2.17223       -0.21902       -0.36755
P          1.58676       -0.53420       -0.34092
C         -0.77284       -0.97807       -2.93819
O         -0.98771       -0.63388       -4.02433
H          1.60323       -1.30269        1.93378
H          2.27925       -2.50392        0.83230
C          3.71056       -1.06662        1.54582
C          4.82559       -1.76262        1.06623
H          4.68184       -2.63405        0.42184
C          3.92325        0.03104        2.39164
H          3.05766        0.56413        2.79641
C          6.11282       -1.33977        1.39050
H          6.97714       -1.88526        1.00345
C          5.20583        0.47008        2.72654
C          5.40670        1.66195        3.61735
H          4.45219        2.02817        4.02113
H          6.06437        1.42075        4.46688
H          5.88009        2.49197        3.06834
C          6.30438       -0.22615        2.20379
H          7.31830        0.10091        2.45032
H          3.31768       -1.60273       -1.59838
H          2.46954       -0.41498       -2.56596
C          4.12437        0.40607       -1.41243
H          3.79623        1.42999       -1.66026
H          4.44691        0.43862       -0.36104
C          5.32776        0.04393       -2.27073
H          5.03596        0.01990       -3.33663
H          5.64571       -0.98531       -2.02226
C          6.50609        0.98813       -2.07955
H          6.19000        2.01760       -2.32560
H          6.77493        1.00511       -1.00826
C          7.72344        0.61375       -2.90911
H          8.55802        1.31314       -2.74806
H          7.49055        0.61643       -3.98623
H          8.08291       -0.39666       -2.65503
H          0.95373        1.24541        1.13268
H          2.59215        1.52861        0.53083
C          1.01420        2.16473       -0.82532
H          1.71107        2.23360       -1.67830
H          0.09386        1.71996       -1.24056
C          0.72214        3.56143       -0.29686
H          1.63850        3.99257        0.14539
H         -0.00001        3.49032        0.53896
C          0.17548        4.50828       -1.35635
H          0.91752        4.60870       -2.16748
H         -0.71330        4.05202       -1.82762
C         -0.18421        5.88144       -0.81340
H         -0.56995        6.54315       -1.60354
H          0.69117        6.37562       -0.36217
H         -0.95885        5.81142       -0.03255
H         -1.89873        1.64042       -1.86683
H         -3.14259        0.52851       -2.42762
C         -3.84541        2.01558       -1.02796
C         -5.20788        1.71088       -1.14926
H         -5.51276        0.79726       -1.66569
C         -3.48726        3.20580       -0.38547
H         -2.42756        3.46191       -0.29850
C         -6.17035        2.56814       -0.62421
H         -7.23010        2.32096       -0.72455
C         -4.43994        4.08051        0.14708
C         -4.01088        5.35806        0.80944
H         -3.17507        5.18843        1.50547
H         -3.66568        6.09293        0.06368
H         -4.83501        5.81835        1.37228
C         -5.79124        3.74196        0.02476
H         -6.55407        4.40906        0.43524
H         -4.48838       -0.45349        0.34513
H         -4.07043       -1.48533       -1.03920
C         -3.59498       -2.36394        0.87004
H         -2.75854       -2.98784        0.51572
H         -3.32335       -2.04093        1.88905
C         -4.86378       -3.20243        0.93597
H         -5.13389       -3.53125       -0.08423
H         -5.70609       -2.57453        1.27997
C         -4.73746       -4.41991        1.84118
H         -3.89044       -5.03857        1.49512
H         -4.46564       -4.08711        2.85882
C         -5.99958       -5.26500        1.89924
H         -5.87674       -6.13624        2.56041
H         -6.27391       -5.64157        0.90062
H         -6.85490       -4.68039        2.27488
H         -1.29545        1.61170        0.88313
H         -2.89127        1.18245        1.49899
C         -1.24428        0.00691        2.31834
H         -1.93685       -0.72789        2.76050
H         -0.41735       -0.58956        1.89649
C         -0.71338        0.92232        3.41313
H         -1.54723        1.48832        3.86618
H         -0.05425        1.68646        2.95998
C          0.05641        0.18517        4.50021
H         -0.61067       -0.54924        4.98471
H          0.85997       -0.41079        4.03135
C          0.65759        1.10737        5.54804
H          1.20203        0.54501        6.32148
H         -0.12055        1.70196        6.05308
H          1.36737        1.81761        5.09253
