100
Cat725.ts34.5.log	Energy: -1790395.3232330
C          0.11946       -2.83720       -2.54797
H         -0.39854       -2.78841       -3.50949
H          1.17467       -3.11538       -2.63375
C         -0.62354       -3.34826       -1.42751
H         -1.68151       -3.59557       -1.54845
H         -0.11692       -4.03935       -0.74200
H         -0.38511       -2.35286       -0.26318
Ir        -0.39310       -1.08882       -1.38974
C          2.06018       -0.27233        1.18645
C          3.02635       -1.92345       -0.92533
C          2.54352        0.90389       -1.47082
C         -2.06241        1.70898        0.25500
C         -3.72949       -0.24690       -1.07892
C         -2.50896       -0.77856        1.51713
P         -2.09622       -0.08848       -0.16845
P          1.75687       -0.57920       -0.60871
C         -0.77938       -0.00889       -2.87643
O         -0.99115        0.67967       -3.78512
H          3.09932        0.05987        1.33653
H          1.96093       -1.25951        1.66816
C          1.09422        0.73028        1.79413
H          0.97118        1.58045        1.10680
H          0.09947        0.26317        1.86967
C          1.50938        1.27908        3.15848
H          2.50708        1.73965        3.03297
C          0.54351        2.37317        3.59728
H          0.49458        3.18210        2.85130
H          0.84473        2.81920        4.55765
H         -0.47665        1.97168        3.72430
C          1.62035        0.18349        4.21202
H          1.92834        0.59429        5.18588
H          2.35693       -0.58481        3.93118
H          0.64889       -0.31965        4.35930
H          2.65636       -2.79524       -0.36119
H          2.92049       -2.17214       -1.99147
C          4.45212       -1.61924       -0.59642
C          5.33366       -1.16258       -1.58757
H          4.98772       -1.09073       -2.62221
C          4.94873       -1.74358        0.70993
H          4.29842       -2.12830        1.49847
C          6.64692       -0.80600       -1.28983
H          7.33209       -0.44923       -2.06076
C          6.25715       -1.39121        1.02726
H          6.64484       -1.48637        2.04314
C          7.09091       -0.91560        0.02156
F          8.34364       -0.57494        0.31939
H          3.36746        0.50431       -2.08026
H          1.77830        1.27318       -2.16574
C          3.04073        2.01770       -0.60066
C          2.26118        3.16571       -0.41058
H          1.30784        3.25385       -0.93526
C          4.26824        1.93994        0.07191
H          4.90734        1.06580       -0.06874
C          2.66831        4.19477        0.43423
H          2.05974        5.08915        0.58076
C          4.69352        2.95940        0.91984
H          5.64935        2.90189        1.44374
C          3.88256        4.07375        1.09798
F          4.28217        5.04960        1.91336
H         -1.32764        1.81360        1.06794
H         -3.04514        1.98054        0.67292
C         -1.66763        2.60837       -0.90429
H         -0.71522        2.23719       -1.31723
H         -2.39344        2.51849       -1.73239
C         -1.51272        4.08719       -0.53909
H         -0.74047        4.14788        0.25253
C         -1.02075        4.87996       -1.74503
H         -0.08701        4.46623       -2.15648
H         -0.83759        5.93444       -1.48683
H         -1.76865        4.86001       -2.55478
C         -2.79499        4.69752        0.01661
H         -2.64871        5.75863        0.27079
H         -3.14337        4.18495        0.92539
H         -3.60686        4.64591       -0.72839
H         -3.51935        0.15223       -2.08289
H         -3.86813       -1.33077       -1.20973
C         -4.93313        0.40500       -0.47419
C         -5.77904       -0.28301        0.40697
H         -5.59267       -1.33758        0.62312
C         -5.23924        1.74480       -0.75467
H         -4.61366        2.30085       -1.45652
C         -6.87223        0.33859        1.00595
H         -7.53267       -0.19868        1.68884
C         -6.32534        2.38468       -0.16597
H         -6.56170        3.42762       -0.38473
C         -7.12836        1.67229        0.71641
F         -8.16937        2.27667        1.28624
H         -1.89554       -0.20887        2.23015
H         -3.55894       -0.52418        1.73125
C         -2.24656       -2.24272        1.67021
C         -3.15645       -3.20514        1.21741
H         -4.10588       -2.88948        0.77985
C         -1.03973       -2.69029        2.22388
H         -0.31337       -1.95842        2.58409
C         -2.87975       -4.56710        1.30687
H         -3.58724       -5.31998        0.95517
C         -0.74470       -4.04720        2.32438
H          0.19184       -4.39929        2.76065
C         -1.67088       -4.97191        1.85820
F         -1.39552       -6.27243        1.94540
