62
Cat759.ts34.5.log	Energy: -1337575.4601397
C         -3.90730       -1.04527       -0.58606
H         -4.27843       -1.99723       -0.19750
H         -4.50228       -0.17360       -0.29996
C         -3.30390       -1.05204       -1.88881
H         -3.14719       -2.00004       -2.40959
H         -3.53383       -0.22295       -2.56695
H         -1.95446       -0.18391       -1.72482
Ir        -1.77441       -0.89250       -0.22037
O         -0.78770        2.21764        1.01029
O         -3.15545        2.10164        0.06309
O         -2.58546        1.20681        2.28626
O          1.44377       -0.38453        0.38902
O          1.11255       -2.59382       -0.62154
O          0.83357       -0.57207       -2.13802
P          0.41701       -1.10846       -0.66156
P         -2.03942        1.14133        0.75121
C         -1.75053       -2.37007        0.97983
O         -1.73084       -3.25964        1.71428
C          0.13768        2.64041        0.10992
C          1.28338        3.24240        0.63275
H          1.38036        3.30509        1.71882
C         -0.03231        2.53154       -1.27245
H         -0.93433        2.07744       -1.68236
C          2.27921        3.74419       -0.20735
C          3.52187        4.35281        0.37490
H          3.28535        5.03596        1.20428
H          4.18537        3.57021        0.78028
H          4.08883        4.91446       -0.38087
C          0.96841        3.01422       -2.11175
H          0.84330        2.92420       -3.19352
C          2.11229        3.61768       -1.59288
H          2.88229        4.00137       -2.26716
C         -3.52237        3.35347        0.61699
H         -3.97607        3.22352        1.61036
H         -2.64821        4.01728        0.70531
H         -4.25288        3.80485       -0.06716
C         -1.88087        0.54346        3.31260
H         -1.64881       -0.49654        3.02794
H         -0.94053        1.06877        3.54501
H         -2.52474        0.53849        4.20205
C          2.81111       -0.51282        0.46395
C          3.37677       -1.62779        1.07472
H          2.71690       -2.41530        1.44199
C          3.60905        0.51999       -0.02566
H          3.13154        1.38443       -0.48796
C          4.76694       -1.73631        1.19812
C          5.37024       -2.94016        1.86260
H          5.02129       -3.87248        1.39191
H          6.46769       -2.92251        1.80957
H          5.08524       -2.99008        2.92581
C          4.99098        0.41570        0.09693
H          5.62770        1.21766       -0.28527
C          5.56691       -0.70196        0.70082
H          6.65399       -0.77308        0.79042
C          0.55441       -3.65269       -1.36905
H         -0.54758       -3.63555       -1.31408
H          0.86011       -3.59544       -2.42725
H          0.92574       -4.59238       -0.93872
C          2.10609       -0.73522       -2.73583
H          2.66062        0.21347       -2.69553
H          2.69737       -1.51761       -2.23640
H          1.94992       -1.01653       -3.78777
