110
Cat733.ts34.5.log	Energy: -1638790.5271252
C         -1.07844        0.51909       -3.26964
H         -0.77827       -0.11245       -4.11098
H         -2.16288        0.65366       -3.19653
C         -0.24196        1.65909       -2.97372
H          0.69511        1.79773       -3.52110
H         -0.73884        2.61481       -2.76529
H         -0.15395        1.64994       -1.40537
Ir         0.00563       -0.01554       -1.49711
C         -1.69055        1.24083        1.35651
C         -3.46086        0.34523       -0.75951
C         -1.98859       -1.60578        1.00930
C          1.66885       -1.04780        1.47512
C          3.40430       -0.41799       -0.77564
C          2.03118        1.73446        0.85298
P          1.78895        0.08154        0.01495
P         -1.80691       -0.03001        0.02336
C          0.58485       -1.63976       -2.24370
O          0.92660       -2.62280       -2.76142
C         -1.41267        0.92328        2.68941
H         -1.34654       -0.12137        2.98967
C         -1.75653        2.61497        1.02096
O         -2.03023        2.90632       -0.26946
C         -2.10442        4.24419       -0.67508
H         -2.89877        4.79132       -0.13838
H         -2.34436        4.23259       -1.74592
H         -1.14419        4.76870       -0.52843
C         -1.19149        1.90329        3.65904
H         -0.97263        1.60871        4.68776
C         -1.55013        3.60133        1.98811
H         -1.60900        4.65609        1.72044
C         -1.26172        3.24423        3.30602
H         -1.09787        4.02592        4.05133
H         -3.17853        1.16341       -1.44391
C         -4.58527        0.88837        0.12217
H         -4.22537        1.72460        0.73946
H         -4.93076        0.11175        0.82260
C         -5.75989        1.34052       -0.74256
H         -6.57848        1.71453       -0.10568
H         -5.43677        2.19367       -1.36707
C         -6.25975        0.21798       -1.64610
H         -7.08028        0.57674       -2.28893
H         -6.68706       -0.58494       -1.01775
C         -5.13237       -0.36247       -2.49352
H         -4.78017        0.40306       -3.20875
H         -5.50107       -1.20578       -3.10003
C         -3.95830       -0.81084       -1.62824
H         -4.28896       -1.64403       -0.98475
H         -3.13624       -1.19843       -2.25063
H         -1.11263       -1.55725        1.68324
C         -1.78315       -2.86336        0.16032
H         -0.85221       -2.76261       -0.41505
H         -2.59384       -2.95567       -0.58062
C         -1.75331       -4.11502        1.03212
H         -1.64265       -5.00960        0.39659
H         -0.86090       -4.07436        1.67965
C         -2.99136       -4.23646        1.91250
H         -2.91830       -5.12494        2.56108
H         -3.88152       -4.38877        1.27504
C         -3.18923       -2.97792        2.74854
H         -2.34856       -2.87482        3.45924
H         -4.10580       -3.05560        3.35623
C         -3.25138       -1.73621        1.86359
H         -4.12661       -1.82306        1.19856
H         -3.41547       -0.83527        2.47385
C          1.41665       -0.59032        2.77137
H          1.34387        0.47930        2.96136
C          1.73766       -2.44789        1.28209
O          1.97201       -2.86632        0.02711
C          1.99888       -4.23743       -0.26761
H          2.84384       -4.74125        0.23294
H          2.11188       -4.31020       -1.35522
H          1.05650       -4.73011        0.02413
C          1.23071       -1.46268        3.84510
H          1.02965       -1.06268        4.84120
C          1.57666       -3.32707        2.35756
H          1.64975       -4.40298        2.20067
C          1.31629       -2.83308        3.63483
H          1.18544       -3.53166        4.46460
H          3.07711       -1.30701       -1.33806
C          4.55838       -0.86366        0.12113
H          4.21395       -1.60181        0.86057
H          4.95496       -0.01020        0.69298
C          5.67912       -1.45411       -0.73152
H          6.52119       -1.76361       -0.09073
H          5.30788       -2.37093       -1.22443
C          6.15422       -0.46809       -1.79410
H          6.93629       -0.92568       -2.42192
H          6.62578        0.39805       -1.29421
C          4.99825        0.02528       -2.65839
H          4.59770       -0.81654       -3.25097
H          5.35359        0.77582       -3.38349
C          3.87200        0.60613       -1.80881
H          4.23791        1.51511       -1.29951
H          3.01985        0.90673       -2.44020
H          1.15702        1.77749        1.52984
C          1.89131        2.94630       -0.07165
H          0.96022        2.86430       -0.64872
H          2.71309        2.96028       -0.80638
C          1.89596        4.24593        0.72850
H          1.82133        5.10641        0.04253
H          0.99408        4.26961        1.36442
C          3.12944        4.37658        1.61354
H          3.07552        5.29781        2.21654
H          4.02796        4.47323        0.97718
C          3.28727        3.15564        2.51119
H          2.44597        3.11489        3.22735
H          4.20756        3.23339        3.11289
C          3.30672        1.87051        1.68915
H          4.17421        1.90061        1.00888
H          3.45527        0.99748        2.34125
