90
Cat792.ts34.5.log	Energy: -1584669.5397208
C         -2.27594       -1.05350       -2.81769
H         -2.33358       -2.08162       -3.18718
H         -3.25474       -0.56889       -2.72520
C         -1.17214       -0.25033       -3.29683
H         -0.39077       -0.72382       -3.89893
H         -1.39174        0.76520       -3.65537
H         -0.68424        0.49893       -2.06425
Ir        -0.90492       -0.91235       -1.16203
C         -3.22494        1.68799        0.22225
C         -3.86243       -0.97140        0.74889
C         -1.67121        0.09060        2.12228
C          1.60635       -1.00738        1.33884
C          2.59480       -1.38361       -1.36738
C          1.77594        1.23311       -0.51867
P          1.26686       -0.52528       -0.42902
P         -2.34781        0.03957        0.41591
C         -0.82632       -2.73461       -0.68682
O         -0.76735       -3.83037       -0.31648
H         -3.96335        1.46561       -0.56540
H         -3.79622        1.88149        1.14290
C         -2.41709        2.88943       -0.16590
C         -2.27610        3.98125        0.70047
H         -2.75679        3.95884        1.68262
C         -1.83162        2.97042       -1.43223
H         -1.96997        2.13885       -2.12469
C         -1.56119        5.10874        0.30389
H         -1.47214        5.96107        0.98231
C         -1.09397        4.08411       -1.84205
C         -0.42924        4.09800       -3.18623
H         -0.19012        5.12041       -3.51173
H          0.51568        3.53141       -3.14674
H         -1.06291        3.63100       -3.95521
C         -0.96898        5.15873       -0.95575
H         -0.40500        6.04477       -1.25948
C         -4.21967       -2.02152       -0.09964
C         -4.67689       -0.68786        1.85524
C         -6.17961       -2.47468        1.23918
C         -5.82727       -1.43217        2.09804
C         -5.37309       -2.76849        0.14302
H         -3.57488       -2.25391       -0.94903
H         -5.63633       -3.58967       -0.52803
H         -7.08076       -3.06208        1.43178
H         -6.44937       -1.20297        2.96679
H         -4.39759        0.11027        2.54876
C         -1.26327        1.26806        2.75831
C         -1.46930       -1.13516        2.77669
C         -0.44538       -0.00106        4.64905
C         -0.86919       -1.17929        4.02978
C         -0.64678        1.22003        4.01088
H         -1.40954        2.23237        2.27039
H         -0.32440        2.14852        4.48886
H          0.03926       -0.03776        5.62729
H         -0.71792       -2.14222        4.52343
H         -1.77469       -2.06332        2.28580
H          0.95681       -0.35660        1.94094
H          1.18645       -2.02086        1.41952
C          3.02488       -0.96657        1.80460
C          3.81194       -2.12398        1.78172
H          3.36963       -3.06914        1.45692
C          3.61280        0.23565        2.21394
H          3.00510        1.14328        2.23967
C          5.15532       -2.06702        2.14051
H          5.76396       -2.97409        2.11104
C          4.96301        0.31282        2.56854
C          5.55779        1.61838        3.01212
H          5.11718        2.46477        2.46469
H          5.37296        1.79169        4.08560
H          6.64651        1.63909        2.85980
C          5.73113       -0.85662        2.52085
H          6.79043       -0.81712        2.78974
C          2.24641       -2.37830       -2.28624
C          3.95320       -1.08668       -1.16906
C          4.57579       -2.77836       -2.77896
C          4.93398       -1.78025       -1.87213
C          3.23077       -3.07560       -2.98587
H          1.18496       -2.58948       -2.44603
H          2.94208       -3.85218       -3.69822
H          5.34886       -3.32214       -3.32780
H          5.98679       -1.54119       -1.70419
H          4.24976       -0.30731       -0.46468
C          1.30010        2.12809        0.44819
C          2.54739        1.72891       -1.57497
C          2.41237        3.96291       -0.65802
C          2.86466        3.08611       -1.64111
C          1.62273        3.47903        0.38518
H          0.66641        1.76629        1.25939
H          1.23954        4.16069        1.14705
H          2.66314        5.02504       -0.71016
H          3.47443        3.45718       -2.46872
H          2.91063        1.05157       -2.35044
