82
Cat729.ts34.5.log	Energy: -1345983.1795892
C          1.61620       -3.04732       -0.44265
H          1.17940       -3.91702       -0.94219
H          2.59123       -2.75939       -0.85060
C          1.43239       -2.95517        0.98739
H          0.79814       -3.69024        1.49237
H          2.29924       -2.67691        1.59850
H          1.08622       -1.44417        1.22484
Ir         0.14628       -1.51169       -0.16636
C          2.10461        1.43103        0.25646
C          2.92667       -0.22919       -1.99195
C          0.43122        1.47385       -2.09448
C         -2.70001        0.54481       -0.16082
C         -2.74703       -1.56932        1.79169
C         -0.98907        0.86130        2.25538
P         -1.55253       -0.37018        0.97209
P          1.41270        0.29453       -1.02125
C         -1.06484       -2.29394       -1.37459
O         -1.80033       -2.78780       -2.12496
C          1.60634        2.71574        0.49260
H          0.84453        3.12143       -0.17104
C          3.08610        0.94521        1.15270
O          3.54354       -0.30369        0.91619
C          4.52465       -0.85227        1.74968
H          5.45269       -0.25445        1.73862
H          4.74164       -1.85414        1.35770
H          4.17143       -0.94479        2.79163
C          2.04170        3.49864        1.56301
H          1.62705        4.49837        1.71121
C          3.53475        1.72540        2.22056
H          4.29162        1.34140        2.90446
C          3.00892        3.00115        2.42657
H          3.36556        3.60055        3.26736
H          3.33761       -0.99303       -1.31550
C          2.51530       -0.92754       -3.28210
H          3.37066       -1.48081       -3.70242
H          1.69822       -1.64335       -3.10402
H          2.18367       -0.20963       -4.04778
C          4.02073        0.80820       -2.20803
H          4.29047        1.32474       -1.27565
H          4.92932        0.31137       -2.58801
H          3.73656        1.57153       -2.94476
H         -0.20615        1.95375       -1.33456
C          1.22904        2.55340       -2.81992
H          0.54536        3.32592       -3.21057
H          1.96854        3.05125       -2.17701
H          1.76346        2.13470       -3.68554
C         -0.51835        0.76042       -3.05064
H         -1.12418        0.01056       -2.52813
H         -1.20189        1.49517       -3.50555
H          0.01790        0.25323       -3.86545
C         -3.58725       -0.24699       -0.90407
H         -3.60653       -1.32452       -0.73792
C         -2.68310        1.92684       -0.44872
O         -1.79825        2.70146        0.22425
C         -1.82113        4.09051        0.06113
H         -1.54469        4.38971       -0.96546
H         -1.07940        4.49639        0.76124
H         -2.81065        4.51485        0.30352
C         -4.43618        0.28094       -1.87195
H         -5.10363       -0.38027       -2.42750
C         -3.53991        2.46614       -1.41550
H         -3.52015        3.53491       -1.62747
C         -4.41378        1.64726       -2.12416
H         -5.07010        2.08571       -2.87939
H         -2.94517       -2.25760        0.95264
C         -2.03539       -2.39058        2.86035
H         -2.63632       -3.27759        3.11612
H         -1.05177       -2.73158        2.50613
H         -1.89391       -1.81374        3.78653
C         -4.07759       -1.02053        2.29343
H         -4.57337       -0.37532        1.55471
H         -4.75965       -1.85735        2.51685
H         -3.95845       -0.44437        3.22081
H         -0.48777        1.59916        1.61499
C         -2.10158        1.56927        3.02005
H         -1.70163        2.48080        3.49363
H         -2.93837        1.86761        2.37378
H         -2.50064        0.93595        3.82621
C          0.07441        0.31696        3.20121
H          0.88592       -0.17429        2.64754
H          0.51645        1.15482        3.76330
H         -0.33155       -0.39970        3.92949
