90
Cat775.ts34.5.log	Energy: -2971784.7560996
C          1.78479       -3.41791       -0.25546
H          2.32649       -3.94034        0.53682
H          0.90229       -3.95414       -0.61621
C          2.54897       -2.64760       -1.19467
H          3.62228       -2.50249       -1.04277
H          2.26709       -2.68633       -2.25221
H          1.74001       -1.23956       -1.33583
Ir         1.46203       -1.34957        0.31280
O         -1.64844       -2.62220        0.83721
O         -1.45085       -0.06451        0.93355
O         -1.52917       -1.37751       -1.30169
O          0.64447        1.83410       -0.44083
O          1.47822        1.57295        1.85561
O          3.11157        1.54764       -0.09257
P          1.68095        0.87156        0.40465
P         -0.78204       -1.37375        0.16829
C          2.16402       -1.62836        2.07210
O          2.56970       -1.77912        3.13796
C         -1.24107       -3.22559        2.00435
C         -0.91556       -2.47212        3.12943
H         -0.98274       -1.38305        3.08320
C         -1.16648       -4.61656        2.02529
H         -1.42259       -5.18034        1.12660
C         -0.48250       -3.10325        4.30108
C         -0.05911       -2.28132        5.48204
H          0.94954       -1.87067        5.31187
H         -0.73616       -1.42963        5.64456
H         -0.02893       -2.88027        6.40286
C         -0.75981       -5.24775        3.19670
H         -0.70191       -6.33833        3.22953
C         -0.41529       -4.50008        4.32214
H         -0.08546       -5.00818        5.23171
C         -2.68820        0.48964        0.72461
C         -3.85752       -0.19946        1.04503
H         -3.79500       -1.19937        1.47614
C         -2.73882        1.77450        0.18697
H         -1.80085        2.28581       -0.03726
C         -5.09074        0.37799        0.76256
H         -6.01707       -0.15967        0.96939
C         -3.97269        2.35906       -0.08109
H         -4.03309        3.35718       -0.51780
C         -5.14143        1.64789        0.18778
Cl        -6.67674        2.34025       -0.21735
C         -2.86225       -1.44330       -1.64210
C         -3.42301       -0.35064       -2.30254
H         -2.80544        0.52550       -2.50538
C         -3.62461       -2.57982       -1.37956
H         -3.16581       -3.43065       -0.87822
C         -4.76940       -0.36430       -2.64626
H         -5.23007        0.49984       -3.12684
C         -4.97277       -2.59604       -1.72620
H         -5.58881       -3.47084       -1.51218
C         -5.54334       -1.48411       -2.34277
Cl        -7.23130       -1.48925       -2.73099
C          0.78015        2.04820       -1.79345
C          0.26950        1.12016       -2.69547
H         -0.22811        0.22606       -2.31692
C          1.41499        3.21005       -2.22928
H          1.80258        3.91491       -1.49241
C          0.39716        1.33411       -4.07385
C         -0.13592        0.31595       -5.03945
H          0.48042       -0.59767       -5.02594
H         -1.16036        0.01218       -4.77525
H         -0.14445        0.69938       -6.06906
C          1.53654        3.42789       -3.59853
H          2.02820        4.33435       -3.95933
C          1.03813        2.49776       -4.51230
H          1.14241        2.68234       -5.58454
C          1.16436        2.90026        2.04468
C         -0.12420        3.21773        2.46535
H         -0.84914        2.41398        2.60342
C          2.11820        3.89477        1.84404
H          3.11934        3.61852        1.51043
C         -0.46757        4.54683        2.68920
H         -1.47363        4.81420        3.01587
C          1.77535        5.22629        2.06475
H          2.50740        6.02123        1.91422
C          0.48465        5.54569        2.48473
Cl         0.05865        7.20282        2.75610
C          4.07296        0.79190       -0.71824
C          4.11070        0.73976       -2.10997
H          3.37768        1.30488       -2.68879
C          4.98782        0.07002        0.04541
H          4.93072        0.11606        1.13413
C          5.07477       -0.03899       -2.74426
H          5.11723       -0.09240       -3.83311
C          5.95250       -0.70982       -0.58512
H          6.67359       -1.28399       -0.00149
C          5.98768       -0.76352       -1.97869
Cl         7.17483       -1.74884       -2.76697
