100
Cat709.ts34.5.log	Energy: -1541422.3982863
C          1.33546       -3.38013        0.52009
H          1.32333       -4.16950       -0.23726
H          2.31926       -3.23573        0.98091
C          0.17092       -3.26963        1.36758
H         -0.70666       -3.89101        1.16486
H          0.33586       -3.13300        2.44429
H         -0.12145       -1.73773        1.44545
Ir         0.28283       -1.63757       -0.18799
C          2.48724        0.12440        2.06608
C          3.63872       -0.52651       -0.43479
C          1.81116        1.58073       -0.35628
C         -1.83773        0.57952       -1.97197
C         -3.19266       -1.22691       -0.18331
C         -1.76145        1.01088        0.88095
P         -1.60862       -0.31177       -0.37550
P          1.99590       -0.12231        0.30119
C          0.23521       -2.11741       -2.01114
O          0.20291       -2.35926       -3.14483
H          3.28148        0.88729        2.13604
H          2.96009       -0.83496        2.33317
C          1.33732        0.43474        3.01144
H          0.85570        1.38462        2.72538
H          0.55091       -0.32850        2.88035
C          1.73983        0.49950        4.48760
H          2.56545        1.23114        4.57944
C          0.57746        1.00215        5.33528
H          0.22769        1.98678        4.99007
H          0.86113        1.09041        6.39568
H         -0.27806        0.30963        5.27274
C          2.24415       -0.84248        5.00774
H          2.51608       -0.77951        6.07280
H          3.13259       -1.19564        4.46341
H          1.46241       -1.61495        4.90881
C          3.82045       -1.69273       -1.17797
H          2.96971       -2.36249       -1.32067
C          4.72826        0.34332       -0.28049
H          4.60441        1.28355        0.26422
C          5.06243       -1.99272       -1.73786
H          5.18039       -2.91133       -2.31946
C          5.96373        0.03927       -0.83736
H          6.79871        0.73420       -0.70763
C          6.15541       -1.13874       -1.57476
C          7.49661       -1.46007       -2.16621
H          7.87089       -0.62847       -2.78365
H          8.24546       -1.63772       -1.37721
H          7.45453       -2.35906       -2.79677
C          1.89388        2.74587        0.40763
H          2.08630        2.69250        1.48052
C          1.57242        1.70511       -1.73366
H          1.51137        0.79977       -2.34530
C          1.71106        3.99833       -0.18246
H          1.76442        4.89605        0.44025
C          1.41188        2.95339       -2.31870
H          1.24203        3.02378       -3.39704
C          1.45939        4.12761       -1.54952
C          1.23666        5.46680       -2.18782
H          1.92643        5.62772       -3.03116
H          0.21328        5.54681       -2.58987
H          1.38119        6.28624       -1.46993
H         -1.69446       -0.18798       -2.74993
H         -0.96403        1.24531       -2.04955
C         -3.14742        1.32507       -2.17771
H         -3.96447        0.59051       -2.25847
H         -3.38018        1.94102       -1.29064
C         -3.16320        2.23220       -3.41216
H         -2.79329        1.63834       -4.26910
C         -4.58693        2.67633       -3.72725
H         -5.24742        1.81404       -3.90751
H         -4.62042        3.32060       -4.61967
H         -5.01094        3.25074       -2.88643
C         -2.24675        3.43957       -3.24145
H         -2.23490        4.06390       -4.14851
H         -1.20845        3.14679       -3.02707
H         -2.59160        4.07142       -2.40532
C         -3.21851       -2.58923       -0.49354
H         -2.28043       -3.07240       -0.78552
C         -4.38873       -0.60754        0.20591
H         -4.39675        0.45466        0.46028
C         -4.40746       -3.31204       -0.42552
H         -4.40467       -4.37601       -0.67878
C         -5.57060       -1.33666        0.28103
H         -6.49226       -0.83421        0.58881
C         -5.60303       -2.70209       -0.03291
C         -6.87717       -3.48651        0.08003
H         -7.74412       -2.89690       -0.25339
H         -6.83791       -4.40841       -0.51736
H         -7.06709       -3.77929        1.12631
C         -1.36972        2.32580        0.61801
H         -1.00505        2.61155       -0.37035
C         -2.19048        0.69164        2.17722
H         -2.48606       -0.33469        2.41137
C         -1.41860        3.29454        1.61983
H         -1.09740        4.31361        1.38763
C         -2.24767        1.66380        3.16715
H         -2.59077        1.39038        4.16885
C         -1.86402        2.98757        2.90748
C         -1.94776        4.03569        3.97787
H         -2.99567        4.31322        4.17883
H         -1.52367        3.67575        4.92802
H         -1.41173        4.95081        3.68926
