90
Cat744.ts34.5.log	Energy: -2067425.7900049
C         -1.10258        2.19136        2.52346
H         -0.84245        3.25254        2.55477
H         -2.17344        1.97570        2.48161
C         -0.25616        1.27856        3.22934
H          0.66008        1.63024        3.71019
H         -0.73149        0.44322        3.75525
H          0.07401        0.06144        2.18882
Ir         0.07871        1.21422        0.98136
C         -1.79526       -1.61006       -0.46633
O         -3.06697        0.19003        1.07647
O         -2.32930        0.77665       -1.32886
C          2.63124        0.76715       -1.43364
O          3.26935        0.16585        1.01717
O          1.64493       -1.44876       -0.13314
P          1.85913        0.17960        0.10023
P         -1.71423        0.12858        0.08598
C          0.53580        2.87358        0.16006
O          0.81161        3.88520       -0.31715
C         -2.22201       -1.97052       -1.74491
H         -2.54510       -1.18005       -2.42346
C         -1.40261       -2.62202        0.43152
O         -1.06528       -2.22442        1.67143
C         -0.34421       -3.09384        2.50194
H         -0.96942       -3.92796        2.86496
H         -0.01034       -2.49790        3.36111
H          0.53878       -3.49985        1.98100
C         -2.24327       -3.30573       -2.14734
H         -2.58795       -3.57102       -3.14894
C         -1.40972       -3.96065        0.02802
H         -1.09784       -4.74656        0.71593
C         -1.83225       -4.29456       -1.25756
H         -1.84235       -5.34464       -1.55942
C         -4.19324       -0.55448        0.84752
C         -4.42376       -1.68134        1.63735
H         -3.68604       -1.94392        2.39701
C         -5.10482       -0.19241       -0.14561
H         -4.90692        0.68514       -0.76190
C         -5.56686       -2.44961        1.43979
H         -5.77066       -3.33613        2.04295
C         -6.24904       -0.96024       -0.34788
H         -6.97892       -0.70050       -1.11672
C         -6.46554       -2.07963        0.44616
F         -7.56098       -2.81553        0.25146
C         -2.16032        2.10132       -1.62668
C         -2.78497        3.09101       -0.86686
H         -3.39709        2.80392       -0.01004
C         -1.34607        2.44857       -2.70265
H         -0.83787        1.65666       -3.25143
C         -2.60407        4.43168       -1.19481
H         -3.07366        5.22751       -0.61427
C         -1.16640        3.78645       -3.03777
H         -0.52234        4.08516       -3.86628
C         -1.79757        4.76266       -2.27683
F         -1.62161        6.04634       -2.58866
C          3.77108        1.57273       -1.39105
H          4.23818        1.76826       -0.42485
C          2.01943        0.50531       -2.67575
O          0.90986       -0.25667       -2.65396
C          0.43842       -0.80711       -3.85573
H          0.03897       -0.03276       -4.53381
H         -0.37071       -1.49371       -3.58337
H          1.23290       -1.37011       -4.37316
C          4.31596        2.10568       -2.55669
H          5.20804        2.73266       -2.50716
C          2.57588        1.02604       -3.84754
H          2.12078        0.81566       -4.81531
C          3.71593        1.82470       -3.78016
H          4.13601        2.23099       -4.70337
C          3.19611        0.12997        2.38141
C          3.42330        1.29662        3.11071
H          3.63549        2.22304        2.57512
C          2.89587       -1.06391        3.03707
H          2.71712       -1.96281        2.44499
C          3.36346        1.26997        4.50148
H          3.53912        2.16745        5.09721
C          2.82677       -1.09477        4.42796
H          2.59982       -2.01548        4.96878
C          3.06133        0.07390        5.14299
F          2.99679        0.04639        6.47385
C          2.39373       -2.25153       -0.95011
C          3.78772       -2.18677       -1.00086
H          4.31949       -1.46827       -0.37671
C          1.70172       -3.17350       -1.73702
H          0.61340       -3.20100       -1.67781
C          4.48702       -3.04179       -1.85091
H          5.57613       -3.00874       -1.91317
C          2.39949       -4.03326       -2.57880
H          1.87978       -4.76391       -3.20142
C          3.78706       -3.95321       -2.62994
F          4.45793       -4.77193       -3.44230
