92
Cat715.ts34.5.log	Energy: -1880539.6488390
C          1.76911       -0.22343       -3.55335
H          1.36354        0.23135       -4.46122
H          2.80081        0.07693       -3.34231
C          1.39173       -1.58641       -3.27114
H          0.64136       -2.07796       -3.89608
H          2.16806       -2.27808       -2.92271
H          1.09249       -1.57270       -1.69138
Ir         0.34034       -0.10085       -1.93571
C          3.48975        0.46836       -0.29811
O          2.00953        2.57472       -0.65375
O          1.13692        0.84667        1.08065
C         -2.09892        0.64292        0.49613
O         -2.49549       -1.55005       -1.14290
O         -0.83287       -1.64507        0.83216
P         -1.26443       -0.67142       -0.44610
P          1.73450        0.92943       -0.47945
C         -0.91028        0.93946       -2.93918
O         -1.67947        1.56635       -3.52643
H          4.02252        1.20742        0.31870
H          3.88641        0.57015       -1.32206
C          3.67344       -0.94728        0.23299
H          3.47628       -0.94654        1.31760
H          2.91187       -1.61713       -0.20578
C          5.06405       -1.53159       -0.03394
H          5.80884       -0.77588        0.27962
C          5.29662       -2.78850        0.79639
H          5.16703       -2.58974        1.87181
H          6.31444       -3.18077        0.64732
H          4.59106       -3.58655        0.51622
C          5.27947       -1.82322       -1.51532
H          6.29613       -2.20045       -1.70379
H          5.14008       -0.93204       -2.14617
H          4.56995       -2.59326       -1.86251
C          0.96712        3.40487       -0.97777
C          0.14935        3.92088        0.02746
H          0.34940        3.66257        1.06918
C          0.73268        3.72714       -2.31347
H          1.37667        3.29586       -3.08100
C         -0.90815        4.76485       -0.30415
H         -1.56287        5.18521        0.46139
C         -0.32224        4.56928       -2.65016
H         -0.53732        4.82599       -3.68848
C         -1.13239        5.07458       -1.64020
F         -2.14755        5.87694       -1.95930
C          1.64169        1.30391        2.26077
C          2.57115        2.34296        2.36976
H          2.93735        2.84461        1.47435
C          1.13078        0.70470        3.41703
H          0.38027       -0.07917        3.30447
C          3.00447        2.75317        3.63029
H          3.72973        3.56169        3.73837
C          1.55766        1.11776        4.67375
H          1.16798        0.66153        5.58552
C          2.49915        2.13713        4.76658
F          2.91507        2.53469        5.96873
H         -2.81423        1.09394       -0.21410
H         -1.29774        1.38519        0.62886
C         -2.75703        0.30432        1.82686
H         -3.53177       -0.46284        1.68447
H         -2.00435       -0.14638        2.49419
C         -3.39056        1.51158        2.52321
H         -4.13470        1.94356        1.82736
C         -4.13257        1.05428        3.77373
H         -4.89178        0.29339        3.53449
H         -4.64028        1.89524        4.27065
H         -3.43344        0.61034        4.50213
C         -2.37253        2.59681        2.85662
H         -2.84817        3.43385        3.39053
H         -1.89965        3.00975        1.95383
H         -1.57011        2.20068        3.50159
C         -3.66429       -1.86037       -0.49581
C         -4.80950       -1.11646       -0.78050
H         -4.74880       -0.31191       -1.51584
C         -3.71403       -2.91314        0.41917
H         -2.81276       -3.49235        0.62412
C         -6.00465       -1.40247       -0.12656
H         -6.91464       -0.83411       -0.32660
C         -4.90742       -3.20237        1.07486
H         -4.97503       -4.01549        1.79969
C         -6.03631       -2.43877        0.79977
F         -7.17687       -2.71276        1.43101
C          0.06071       -2.67080        0.73670
C          0.06886       -3.55035       -0.34995
H         -0.65878       -3.42598       -1.15387
C          0.97428       -2.83454        1.77829
H          0.95518       -2.13635        2.61497
C          1.01612       -4.57122       -0.40720
H          1.05249       -5.26247       -1.25100
C          1.90825       -3.86337        1.73248
H          2.63754       -4.00442        2.53162
C          1.92781       -4.70998        0.63072
F          2.85299       -5.67001        0.56578
