90
Cat771.ts34.5.log	Energy: -1818492.9741456
C          0.81541        0.03681       -3.59422
H          0.66462        0.88923       -4.26197
H          1.86026       -0.27147       -3.49484
C         -0.21194       -0.96965       -3.56863
H         -1.14301       -0.80620       -4.11757
H          0.09470       -2.02232       -3.54230
H         -0.42192       -1.29061       -2.03460
Ir        -0.22481        0.34664       -1.72669
O          1.72716       -1.44147        0.45107
O          3.00333        0.16995       -1.10274
O          1.66165        0.96980        0.96349
O         -2.31489        1.22434        0.82147
O         -3.35205       -0.34742       -0.91787
O         -1.73186       -1.18000        0.78926
P         -1.89633        0.06074       -0.26271
P          1.53554        0.00595       -0.36462
C         -0.52099        2.19068       -2.16337
O         -0.62612        3.28905       -2.48562
C          1.41812       -2.62732       -0.16170
C          1.96338       -2.95634       -1.40207
H          2.65405       -2.25942       -1.88315
C          0.54218       -3.49577        0.48741
H          0.11639       -3.20495        1.44847
C          1.63014       -4.16460       -2.02640
C          2.23402       -4.51635       -3.35557
H          2.22148       -3.65737       -4.04392
H          3.28717       -4.82143       -3.24138
H          1.69771       -5.34731       -3.83476
C          0.21555       -4.69941       -0.12738
H         -0.47626       -5.38478        0.36810
C          0.74679       -5.03060       -1.37458
H          0.47223       -5.97616       -1.84915
C          4.27319        0.23388       -0.58149
C          4.77265       -0.73320        0.29123
H          4.14013       -1.56488        0.59988
C          5.06860        1.30295       -0.99192
H          4.64654        2.03270       -1.68533
C          6.06770       -0.59393        0.78436
H          6.45300       -1.33859        1.48461
C          6.36576        1.42254       -0.50103
H          6.98700        2.26331       -0.81909
C          6.86727        0.48030        0.39617
H          7.88121        0.58029        0.78933
C          2.62649        0.97115        1.95103
C          3.51072        2.04702        1.99523
H          3.43597        2.82269        1.23167
C          2.68136       -0.04105        2.90829
H          1.98117       -0.87339        2.85358
C          4.48406        2.09269        2.98851
H          5.18967        2.92618        3.01213
C          3.65685        0.02052        3.90173
H          3.70798       -0.77474        4.64935
C          4.56302        1.07867        3.94313
H          5.32981        1.11522        4.71997
C         -2.13898        2.56252        0.55063
C         -3.09365        3.23804       -0.20396
H         -3.95330        2.68487       -0.58982
C         -1.01023        3.21142        1.04265
H         -0.26474        2.64666        1.60265
C         -2.93518        4.59840       -0.48508
C         -3.92327        5.31562       -1.35668
H         -4.93879        4.91109       -1.23768
H         -3.95152        6.39204       -1.13509
H         -3.64649        5.20380       -2.41834
C         -0.85741        4.56847        0.77440
H          0.02272        5.09513        1.15062
C         -1.80784        5.25472        0.02134
H         -1.66778        6.31811       -0.18901
C         -4.34568       -0.96743       -0.19473
C         -5.07078       -0.27593        0.77504
H         -4.83286        0.76713        0.98425
C         -4.61449       -2.30850       -0.46491
H         -4.01994       -2.82038       -1.22349
C         -6.06975       -0.94281        1.48181
H         -6.63340       -0.40511        2.24770
C         -5.61878       -2.96317        0.24410
H         -5.83044       -4.01419        0.03327
C         -6.34755       -2.28392        1.22138
H         -7.13209       -2.80023        1.77889
C         -1.77862       -1.18921        2.15952
C         -2.70847       -2.02085        2.78001
H         -3.41247       -2.58333        2.16408
C         -0.86949       -0.44436        2.90850
H         -0.15117        0.19498        2.39587
C         -2.72073       -2.10670        4.17079
H         -3.44912       -2.75736        4.66063
C         -0.89498       -0.53622        4.29780
H         -0.17989        0.04656        4.88353
C         -1.81787       -1.36658        4.93392
H         -1.83345       -1.43652        6.02378
