110
Cat748.ts34.5.log	Energy: -1826906.3367626
C          1.18538        0.83403       -3.45764
H          1.03320        1.83538       -3.86952
H          2.20348        0.44966       -3.54245
C          0.09935       -0.09417       -3.57850
H         -0.84275        0.23214       -4.02854
H          0.34345       -1.13934       -3.80735
H         -0.19648       -0.69603       -2.14441
Ir         0.29420        0.77758       -1.48432
C          2.16539       -2.22655       -1.03447
C          3.64342        0.09730       -0.11411
C          1.35153       -0.86447        1.38858
C         -2.25481        2.55198        0.08095
C         -3.11952        0.22896       -1.47174
C         -2.11636       -0.03764        1.22616
P         -1.74729        0.84515       -0.37264
P          1.89962       -0.54023       -0.34449
C          0.59062        2.59561       -1.11744
O          0.76812        3.71483       -0.88097
C          1.53279       -3.34129       -0.47295
H          0.98192       -3.23267        0.46174
C          2.88226       -2.41678       -2.23672
O          3.48881       -1.32486       -2.75753
C          4.21033       -1.43861       -3.95252
H          5.05556       -2.14153       -3.85363
H          4.60273       -0.43843       -4.17633
H          3.56705       -1.76382       -4.78836
C          1.59210       -4.60046       -1.06835
H          1.09144       -5.44747       -0.59459
C          2.94895       -3.67771       -2.83633
H          3.50711       -3.81971       -3.76172
C          2.30072       -4.76596       -2.25258
H          2.36083       -5.74604       -2.73145
H          4.22585       -0.68121        0.39708
H          4.04674        0.19460       -1.12778
C          3.73030        1.38565        0.64990
C          3.78856        1.35542        2.05026
H          3.77044        0.38891        2.56019
C          3.79602        2.62821       -0.01355
C          3.84283        2.71163       -1.51137
H          3.06240        2.09458       -1.97747
H          4.81778        2.35850       -1.88961
H          3.70583        3.74675       -1.85150
C          3.88958        2.52547        2.79821
H          3.94435        2.47210        3.88840
C          3.87790        3.79547        0.75416
H          3.91481        4.75913        0.23929
C          3.92318        3.75566        2.14534
H          3.99637        4.68466        2.71640
H          1.14540        0.15735        1.74592
H          0.34908       -1.31092        1.28669
C          2.14033       -1.61942        2.42772
C          3.25812       -2.40667        2.13416
H          3.57995       -2.51617        1.09858
C          1.70796       -1.53082        3.77111
C          0.47959       -0.74883        4.13482
H         -0.41277       -1.15169        3.62807
H          0.55941        0.30930        3.83782
H          0.29585       -0.78184        5.21727
C          3.96374       -3.07284        3.13459
H          4.83414       -3.67841        2.87156
C          2.42829       -2.20097        4.76376
H          2.09164       -2.12437        5.80152
C          3.55308       -2.96416        4.45866
H          4.09932       -3.47729        5.25365
C         -3.20989        3.28055       -0.63243
H         -3.75584        2.80435       -1.44853
C         -1.54598        3.21223        1.10565
O         -0.59768        2.49119        1.73867
C          0.41365        3.16437        2.44620
H          0.87191        3.95009        1.82560
H          1.18532        2.42107        2.67804
H          0.03505        3.59959        3.38733
C         -3.48508        4.61387       -0.33379
H         -4.23934        5.15584       -0.90760
C         -1.81598        4.54918        1.40851
H         -1.26055        5.05412        2.19894
C         -2.78828        5.24313        0.69254
H         -2.99154        6.28821        0.93765
H         -3.27003        1.02314       -2.22187
H         -2.64817       -0.58825       -2.02961
C         -4.41788       -0.23596       -0.86536
C         -5.10854        0.54900        0.06713
H         -4.70424        1.52159        0.35238
C         -4.96528       -1.48385       -1.23892
C         -4.31657       -2.35491       -2.27619
H         -3.30482       -2.66140       -1.97097
H         -4.22912       -1.83819       -3.24541
H         -4.90300       -3.26982       -2.43658
C         -6.29743        0.11593        0.64894
H         -6.81079        0.75300        1.37335
C         -6.15276       -1.90892       -0.63425
H         -6.56510       -2.88149       -0.91634
C         -6.81799       -1.12806        0.30646
H         -7.74378       -1.48797        0.76162
H         -1.28172        0.22196        1.89419
H         -3.00199        0.45132        1.65194
C         -2.33855       -1.52356        1.16310
C         -1.70871       -2.32204        0.20225
H         -1.04109       -1.85139       -0.52494
C         -3.18633       -2.14027        2.11079
C         -3.87111       -1.33963        3.17947
H         -4.57466       -0.61434        2.74062
H         -3.15121       -0.76948        3.78828
H         -4.44172       -1.99280        3.85375
C         -1.91403       -3.69989        0.15008
H         -1.40673       -4.29208       -0.61521
C         -3.38674       -3.52142        2.03995
H         -4.05015       -3.99362        2.76978
C         -2.76495       -4.30358        1.06887
H         -2.94237       -5.38123        1.03752
