102
Cat780.ts34.5.log	Energy: -1917006.6924539
C          0.42469       -0.53514       -3.46541
H         -0.11026       -0.07937       -4.30283
H          1.51284       -0.43189       -3.50366
C         -0.13232       -1.73120       -2.89790
H         -1.09790       -2.10188       -3.25172
H          0.55608       -2.53534       -2.61168
H         -0.08833       -1.51487       -1.30262
Ir        -0.48436        0.07835       -1.59973
O          2.83810       -0.30021       -1.40801
C          2.20839        2.15066       -0.52869
C          1.81608       -0.11356        1.16691
O         -1.79235        0.88062        1.41950
C         -3.76458       -0.03974       -0.25100
C         -1.91537       -1.69731        1.10449
P         -1.96927       -0.16072        0.11536
P          1.56913        0.43350       -0.56484
C         -1.33485        1.56859       -2.39727
O         -1.84000        2.47316       -2.91405
C          3.55177       -1.41757       -1.13052
C          4.30698       -1.55798        0.03598
H          4.31147       -0.74466        0.75924
C          3.54946       -2.44502       -2.08215
H          2.96816       -2.31300       -2.99658
C          5.02335       -2.73321        0.28905
C          5.79060       -2.86730        1.57361
H          5.13018       -2.71589        2.44263
H          6.25853       -3.85759        1.66578
H          6.58913       -2.11086        1.64318
C          4.27871       -3.60420       -1.84427
H          4.27704       -4.40409       -2.58930
C          5.00377       -3.75853       -0.66135
H          5.56378       -4.67912       -0.47756
C          1.31351        3.17953       -0.82159
H          0.27526        2.91176       -1.02771
C          3.55498        2.48549       -0.25268
O          4.38679        1.48008        0.07129
C          5.74719        1.73926        0.26926
H          6.20890        2.19480       -0.62337
H          6.22237        0.76750        0.45571
H          5.91870        2.39785        1.13885
C          1.71469        4.51413       -0.85231
H          0.98647        5.29332       -1.08097
C          3.96405        3.82251       -0.29654
H          5.00134        4.08871       -0.09369
C          3.04377        4.82755       -0.59690
H          3.38240        5.86635       -0.62876
C          2.12660        0.78327        2.19088
H          2.26003        1.83820        1.94454
C          1.64220       -1.47613        1.49286
O          1.33618       -2.29578        0.47636
C          1.35099       -3.68463        0.66939
H          2.34224       -4.02418        1.01434
H          1.14806       -4.13201       -0.31142
H          0.56942       -4.00164        1.37838
C          2.27303        0.35800        3.51016
H          2.51656        1.07865        4.29375
C          1.81305       -1.91147        2.81070
H          1.68619       -2.96447        3.05988
C          2.12277       -0.99306        3.81179
H          2.24678       -1.34446        4.83921
C         -1.58816        2.21659        1.28611
C         -0.63302        2.80083        2.11932
H         -0.09481        2.15375        2.81376
C         -2.30468        3.00036        0.38025
H         -3.06160        2.54820       -0.26139
C         -0.35477        4.16599        2.04529
C          0.75297        4.76056        2.86402
H          0.94092        4.17773        3.77742
H          1.68834        4.77536        2.27777
H          0.53338        5.79841        3.15495
C         -2.03952        4.36676        0.31390
H         -2.59416        4.98132       -0.39915
C         -1.07700        4.94822        1.13469
H         -0.87317        6.01985        1.06334
C         -4.17760        0.01315       -1.58134
H         -3.39954       -0.00734       -2.35034
C         -4.74238       -0.04015        0.76899
O         -4.30148       -0.12188        2.03306
C         -5.21474       -0.16332        3.09004
H         -5.82002        0.75839        3.14584
H         -4.62068       -0.25510        4.00793
H         -5.89155       -1.03252        3.01367
C         -5.52717        0.08401       -1.92276
H         -5.82709        0.13065       -2.97142
C         -6.09850        0.03625        0.42927
H         -6.86241        0.04641        1.20697
C         -6.48091        0.09973       -0.91027
H         -7.54409        0.16103       -1.15661
C         -1.53462       -1.70946        2.44315
H         -1.24091       -0.76851        2.90898
C         -2.30139       -2.90494        0.48963
O         -2.64698       -2.81851       -0.80825
C         -3.14110       -3.94341       -1.47516
H         -2.38473       -4.74526       -1.54242
H         -3.40222       -3.61387       -2.48864
H         -4.04586       -4.34321       -0.98523
C         -1.54612       -2.89555        3.17984
H         -1.24550       -2.88620        4.22960
C         -2.32255       -4.09318        1.22546
H         -2.63264       -5.02868        0.75928
C         -1.94732       -4.07947        2.57048
H         -1.97099       -5.01206        3.13993
