102
Cat774.ts34.5.log	Energy: -1917109.2306073
C          1.91654       -2.27277       -2.23261
H          1.80045       -2.35745       -3.31647
H          2.93608       -2.04603       -1.90782
C          1.13692       -3.15884       -1.40956
H          0.38824       -3.80864       -1.87068
H          1.62925       -3.60996       -0.53899
H          0.59337       -2.22157       -0.25456
Ir         0.33675       -1.04319       -1.41738
O          3.14334        0.07310        0.23303
O          1.98921        1.87662       -0.94176
O          0.89639        0.94007        1.13713
O         -2.24684        0.87656       -0.80613
O         -2.88487       -1.62067       -0.99925
O         -1.87653       -0.64593        1.12268
P         -1.67328       -0.61561       -0.51814
P          1.60051        0.42920       -0.26942
C         -0.21793       -0.40123       -3.13066
O         -0.54344        0.01728       -4.15215
C          3.51636       -1.15188        0.70799
C          4.73946       -1.65562        0.26471
H          5.31922       -1.05180       -0.43761
C          2.73008       -1.87208        1.60969
H          1.77727       -1.47431        1.96398
C          5.20109       -2.89762        0.70509
C          6.53207       -3.42220        0.25059
H          6.78796       -3.05774       -0.75463
H          7.33513       -3.09449        0.93176
H          6.54650       -4.52149        0.23278
C          3.18701       -3.11712        2.04177
H          2.57242       -3.68940        2.73954
C          4.40226       -3.62843        1.59557
H          4.74181       -4.60727        1.94395
C          3.24240        2.41123       -1.15850
C          3.78386        3.29136       -0.22731
H          3.22675        3.51255        0.68359
C          3.90737        2.09160       -2.35014
C          3.28812        1.14808       -3.33353
H          3.20633        0.13179       -2.91712
H          2.26291        1.45569       -3.58990
H          3.88175        1.09320       -4.25593
C          5.02592        3.87130       -0.47414
H          5.45310        4.56159        0.25679
C          5.15239        2.68847       -2.57118
H          5.68802        2.45656       -3.49591
C          5.71386        3.56770       -1.64672
H          6.68839        4.01908       -1.84655
C          1.36885        1.97648        1.90954
C          2.41421        1.75538        2.80201
H          2.86660        0.76433        2.85821
C          0.73714        3.22406        1.79562
C         -0.38966        3.41696        0.82978
H         -0.78541        4.43970        0.88374
H         -0.05874        3.22067       -0.20119
H         -1.21443        2.71650        1.03060
C          2.86843        2.80426        3.59863
H          3.69381        2.63828        4.29448
C          1.21179        4.25618        2.61132
H          0.73932        5.23948        2.53974
C          2.26823        4.05798        3.50013
H          2.61976        4.88586        4.12000
C         -3.37249        1.58535       -0.44976
C         -4.00288        1.45041        0.78309
H         -3.61273        0.74211        1.51174
C         -3.83257        2.50231       -1.39440
H         -3.29750        2.60291       -2.33991
C         -5.14657        2.20350        1.07089
C         -5.85053        2.00730        2.38146
H         -6.35900        1.02953        2.40058
H         -5.14159        2.02140        3.22341
H         -6.60638        2.78553        2.55643
C         -4.96121        3.25969       -1.10298
H         -5.33156        3.97844       -1.83784
C         -5.62098        3.10707        0.11575
H         -6.51235        3.70127        0.33172
C         -4.21790       -1.44442       -0.67998
C         -4.69327       -1.84031        0.56661
H         -4.00736       -2.29994        1.27993
C         -5.05372       -0.87860       -1.65242
C         -4.51796       -0.53357       -3.00732
H         -3.63001        0.11124       -2.94330
H         -4.20485       -1.44209       -3.54594
H         -5.27663       -0.01612       -3.60907
C         -6.03199       -1.62630        0.88612
H         -6.41091       -1.92988        1.86481
C         -6.38879       -0.66554       -1.29884
H         -7.05754       -0.20490       -2.03044
C         -6.87697       -1.02364       -0.04328
H         -7.92485       -0.84006        0.20448
C         -1.28374       -1.53400        1.97741
C         -1.12119       -2.87791        1.63791
H         -1.47596       -3.23711        0.67012
C         -0.88458       -1.03660        3.22848
C         -1.14758        0.38924        3.59914
H         -0.47678        0.72149        4.40262
H         -1.01443        1.05034        2.73531
H         -2.18581        0.51415        3.95059
C         -0.51616       -3.74876        2.54263
H         -0.38633       -4.79955        2.27414
C         -0.27644       -1.93376        4.11085
H          0.05307       -1.56395        5.08548
C         -0.08632       -3.27535        3.77931
H          0.38947       -3.95090        4.49383
