102
Cat735.ts34.5.log	Energy: -1916971.0790450
C         -0.78821        1.03799       -3.12335
H         -0.55253        0.44964       -4.01498
H         -1.83645        1.34815       -3.05516
C          0.21766        1.95871       -2.65818
H          1.20313        1.97252       -3.13271
H         -0.10655        2.95911       -2.34739
H          0.21837        1.76225       -1.10564
Ir         0.05435        0.11450       -1.37437
C         -1.75777        1.49000        1.35699
C         -3.46186        0.61645       -0.80124
C         -2.34488       -1.25968        0.91559
C          1.67825       -1.01880        1.63214
C          3.37589       -0.92471       -0.65211
C          2.56238        1.49977        0.60506
P          1.88595       -0.11366        0.04313
P         -1.84836        0.25665        0.00219
C          0.26933       -1.60400       -2.11780
O          0.40939       -2.66518       -2.56288
C         -1.48648        1.11856        2.67620
H         -1.43715        0.05760        2.92818
C         -1.76627        2.86741        1.03882
O         -1.94915        3.16806       -0.26194
C         -2.00580        4.50746       -0.66305
H         -2.83190        5.04683       -0.16783
H         -2.18593        4.49974       -1.74528
H         -1.05743        5.03451       -0.45812
C         -1.25590        2.07319        3.66783
H         -1.03669        1.75328        4.68858
C         -1.56636        3.82748        2.03427
H         -1.59030        4.88996        1.79109
C         -1.30932        3.42458        3.34638
H         -1.14092        4.18268        4.11492
C         -4.43710        1.47837       -0.28126
H         -4.24331        2.02775        0.64330
C         -3.75402       -0.07692       -1.97710
H         -2.99964       -0.74940       -2.39629
C         -5.65734        1.64298       -0.91981
H         -6.42144        2.31398       -0.52211
C         -4.97928        0.07104       -2.62609
H         -5.16794       -0.49070       -3.54125
C         -5.94049        0.94028       -2.09915
O         -7.15143        1.16419       -2.65168
C         -7.49007        0.48326       -3.82564
H         -7.49048       -0.61193       -3.68155
H         -8.50398        0.80498       -4.09628
H         -6.80506        0.72845       -4.65688
C         -1.66257       -2.46262        0.71551
H         -0.79984       -2.46996        0.04761
C         -3.46057       -1.26210        1.76049
H         -4.02657       -0.34019        1.91652
C         -2.07459       -3.62846        1.34694
H         -1.55546       -4.57608        1.19304
C         -3.87660       -2.41932        2.41176
H         -4.74826       -2.38001        3.06551
C         -3.17830       -3.61721        2.20598
O         -3.50022       -4.79264        2.78366
C         -4.60242       -4.84224        3.64404
H         -5.54009       -4.56806        3.12883
H         -4.68215       -5.87904        3.99524
H         -4.47306       -4.17936        4.51809
C          1.62913       -0.38928        2.87561
H          1.78234        0.68967        2.93486
C          1.49079       -2.41633        1.57476
O          1.53354       -2.95344        0.34240
C          1.55261       -4.34250        0.16915
H          2.42772       -4.79565        0.66589
H          1.61118       -4.51135       -0.91265
H          0.63408       -4.81687        0.55398
C          1.39131       -1.11694        4.04325
H          1.35325       -0.60305        5.00614
C          1.27562       -3.15187        2.74128
H          1.13468       -4.23191        2.69518
C          1.21774       -2.49487        3.97065
H          1.03624       -3.07599        4.87799
C          4.36027       -1.50259        0.16488
H          4.23290       -1.50224        1.25078
C          3.56357       -0.94383       -2.03205
H          2.78725       -0.51041       -2.66981
C          5.49149       -2.08189       -0.38685
H          6.26009       -2.54044        0.23850
C          4.70021       -1.51792       -2.60250
H          4.80825       -1.51910       -3.68734
C          5.67192       -2.09462       -1.77877
O          6.79919       -2.68321       -2.22641
C          7.03023       -2.73310       -3.60583
H          7.09967       -1.72344       -4.04825
H          7.98902       -3.24827       -3.74665
H          6.24135       -3.29644       -4.13501
C          1.68209        2.46824        1.11477
H          0.61635        2.24616        1.17687
C          3.91740        1.82407        0.52744
H          4.62955        1.10064        0.12653
C          2.13936        3.70223        1.54444
H          1.45074        4.44520        1.95085
C          4.39132        3.07082        0.94179
H          5.45636        3.28690        0.85358
C          3.50298        4.01851        1.45834
O          3.86035        5.24571        1.88787
C          5.20908        5.61344        1.82689
H          5.59079        5.60858        0.79043
H          5.27637        6.63431        2.22419
H          5.84467        4.94986        2.43979
