102
Cat798.ts34.5.log	Energy: -1683279.6767603
C         -2.39384       -1.16487       -2.75932
H         -2.56806       -2.22009       -2.98998
H         -3.30736       -0.55928       -2.77753
C         -1.18488       -0.57331       -3.29069
H         -0.45136       -1.21589       -3.78670
H         -1.26723        0.40126       -3.79242
H         -0.64474        0.27769       -2.14549
Ir        -1.06842       -0.95818       -1.07552
C         -3.10258        2.06143       -0.20256
C         -4.08160       -0.40225        0.66470
C         -1.81554        0.59284        1.98441
C          1.29923       -0.97296        1.56379
C          2.35431       -1.85830       -0.98716
C          1.83902        0.92713       -0.59344
P          1.09966       -0.72008       -0.27359
P         -2.44579        0.36845        0.27617
C         -1.23258       -2.69760       -0.36813
O         -1.33372       -3.73574        0.13578
H         -3.80466        1.81598       -1.01632
H         -3.70841        2.44133        0.63372
C         -2.12822        3.10152       -0.66692
C         -1.91142        4.27280        0.07191
H         -2.45857        4.43169        1.00538
C         -1.44210        2.94488       -1.87327
H         -1.62885        2.04847       -2.46622
C         -1.02300        5.24151       -0.38669
H         -0.86928        6.15529        0.19303
C         -0.53518        3.89864       -2.34367
C          0.19751        3.66451       -3.63184
H          0.74568        2.71033       -3.59589
H         -0.49873        3.61454       -4.48457
H          0.92435        4.46349       -3.83466
C         -0.33416        5.05392       -1.58355
H          0.36987        5.81344       -1.93392
C         -4.91062        0.14533        1.65583
H         -4.58266        1.01710        2.22836
C         -4.50685       -1.53844       -0.02055
H         -3.84643       -1.96694       -0.77785
C         -6.13951       -0.43989        1.93501
H         -6.78114       -0.01535        2.71123
C         -5.74263       -2.14282        0.25118
C         -6.15945       -3.37147       -0.50380
H         -6.26356       -3.15959       -1.58001
H         -5.40640       -4.16897       -0.40499
H         -7.12057       -3.76317       -0.14235
C         -6.55317       -1.57580        1.23611
H         -7.51918       -2.03326        1.46767
C         -1.85469       -0.50465        2.85651
H         -2.34422       -1.43048        2.54374
C         -1.17590        1.76426        2.40210
H         -1.13938        2.62701        1.73551
C         -1.25555       -0.42004        4.10854
H         -1.29092       -1.27817        4.78415
C         -0.54372        1.85208        3.64905
C          0.20944        3.09332        4.03237
H          1.28906        2.96812        3.84152
H         -0.12744        3.96405        3.45149
H          0.09508        3.32545        5.10148
C         -0.59379        0.74372        4.50051
H         -0.10863        0.79099        5.47918
H          0.71471       -0.16878        2.03215
H          0.74863       -1.90542        1.75685
C          2.68833       -1.04092        2.10868
C          3.33221       -2.27553        2.25819
H          2.79715       -3.19487        2.00760
C          3.39595        0.12379        2.42549
H          2.90248        1.09194        2.31343
C          4.65185       -2.33180        2.69643
H          5.14637       -3.30028        2.80558
C          4.72579        0.08710        2.85628
C          5.44819        1.35939        3.19469
H          5.15551        2.17649        2.51852
H          5.21422        1.68550        4.22208
H          6.53872        1.23449        3.13110
C          5.34908       -1.15940        2.98398
H          6.38945       -1.21080        3.31729
C          1.94075       -2.95688       -1.74672
H          0.87317       -3.08872       -1.94272
C          3.72194       -1.66615       -0.75193
H          4.05789       -0.80409       -0.17066
C          2.88452       -3.85166       -2.24552
H          2.55901       -4.71011       -2.83811
C          4.67984       -2.55678       -1.24566
C          6.13376       -2.33275       -0.94784
H          6.46822       -1.34765       -1.30981
H          6.31294       -2.35127        0.13917
H          6.76741       -3.09997       -1.41449
C          4.24079       -3.65421       -1.99453
H          4.97543       -4.36203       -2.38908
C          1.52932        2.00382        0.24454
H          0.87581        1.85660        1.10446
C          2.64052        1.15302       -1.71645
H          2.87626        0.32187       -2.38603
C          2.04997        3.26567       -0.01825
H          1.80362        4.09968        0.64249
C          3.16450        2.42036       -1.99874
C          3.99975        2.64265       -3.22631
H          4.71397        3.46681       -3.08542
H          4.56504        1.73954       -3.49847
H          3.36558        2.90380       -4.09058
C          2.86878        3.47226       -1.12642
H          3.27581        4.46776       -1.32461
