86
Cat766.ts34.5.log	Energy: -2783024.7604647
C         -1.63112       -2.07096       -2.74584
H         -1.65042       -3.16401       -2.76501
H         -2.61475       -1.59293       -2.73823
C         -0.58174       -1.41633       -3.47404
H          0.21291       -2.00870       -3.93477
H         -0.84015       -0.51858       -4.04585
H         -0.00253       -0.29483       -2.47533
Ir        -0.23987       -1.38856       -1.22793
O         -2.72980        0.71688       -1.67940
C         -3.04463       -0.44615        0.76221
C         -1.21525        1.70105        0.33563
O          1.49686        0.01022        1.23499
C          2.79380       -2.16199        0.24278
C          2.84784        0.38360       -1.08754
P          1.71467       -0.77611       -0.24643
P         -1.76390        0.12651       -0.41116
C         -0.13814       -3.12810       -0.47113
O         -0.11147       -4.19355       -0.02897
C         -4.02555        1.12736       -1.50780
C         -5.04576        0.17551       -1.52057
H         -4.78094       -0.87333       -1.67193
C         -4.32314        2.47607       -1.31168
H         -3.52030        3.21375       -1.30943
C         -6.37306        0.54040       -1.28528
C         -7.44358       -0.50766       -1.19465
H         -7.49157       -0.92206       -0.17322
H         -8.43516       -0.09597       -1.43087
H         -7.24623       -1.34689       -1.87723
C         -5.64954        2.85038       -1.10479
H         -5.89313        3.90483       -0.95307
C         -6.66318        1.89512       -1.07981
H         -7.69634        2.20302       -0.89926
C         -3.31342       -1.81673        0.82202
H         -2.64728       -2.50856        0.30007
C         -3.89031        0.44229        1.44261
H         -3.70371        1.51711        1.40555
C         -4.42413       -2.29778        1.50917
H         -4.64400       -3.36581        1.54478
C         -5.00162       -0.02329        2.13419
H         -5.67539        0.66823        2.64190
C         -5.27155       -1.39181        2.14418
Cl        -6.69665       -1.96945        2.93946
C         -0.99014        1.82268        1.71158
H         -1.16736        0.97126        2.37202
C         -0.92983        2.78984       -0.49621
H         -1.08364        2.69677       -1.57414
C         -0.54239        3.02194        2.25549
H         -0.36996        3.12015        3.32805
C         -0.48065        3.99602        0.03499
H         -0.27312        4.85161       -0.60973
C         -0.30641        4.10749        1.41342
Cl         0.22660        5.61179        2.08816
C          2.45372        0.80359        1.81720
C          2.58268        2.12989        1.40615
H          1.91612        2.50237        0.62662
C          3.28668        0.29000        2.81232
H          3.17482       -0.74504        3.13435
C          3.57363        2.95653        1.94300
C          3.75609        4.35234        1.42268
H          4.17541        4.33650        0.40295
H          2.79846        4.89109        1.37748
H          4.44302        4.93059        2.05641
C          4.25845        1.11677        3.37132
H          4.91310        0.72427        4.15328
C          4.40943        2.43190        2.93560
H          5.18809        3.06321        3.37137
C          2.57379       -2.80097        1.46757
H          1.82384       -2.40382        2.15533
C          3.72434       -2.70665       -0.64995
H          3.88769       -2.23839       -1.62380
C          3.28523       -3.94602        1.81158
H          3.11318       -4.44739        2.76517
C          4.44552       -3.84758       -0.31543
H          5.17658       -4.27076       -1.00601
C          4.22401       -4.45947        0.91869
Cl         5.11927       -5.87892        1.34017
C          4.19305        0.49744       -0.70885
H          4.62354       -0.20570        0.00697
C          2.31810        1.31863       -1.98154
H          1.26788        1.23867       -2.27319
C          4.98624        1.52820       -1.19905
H          6.02733        1.62817       -0.88919
C          3.09577        2.36192       -2.47233
H          2.67796        3.10188       -3.15657
C          4.42516        2.46531       -2.06535
Cl         5.38546        3.79359       -2.62010
