84
Cat720.ts34.5.log	Energy: -1159106.2463467
C         -2.12617       -2.45145       -1.43963
H         -2.15760       -3.48018       -1.06964
H         -3.12073       -2.02011       -1.59628
C         -1.09859       -2.14245       -2.40991
H         -0.35245       -2.90357       -2.65743
H         -1.38927       -1.55518       -3.29067
H         -0.51216       -0.79440       -1.94847
Ir        -0.65939       -1.32532       -0.34378
C         -2.09711        1.92074       -1.09058
C         -3.84298        0.07021        0.24013
C         -1.75234        1.41730        1.70117
C          1.75179        0.84005        1.07641
C          2.64669       -1.88037        0.76720
C          2.38284       -0.19526       -1.60189
P          1.53501       -0.63425       -0.01521
P         -2.05087        0.51419        0.11484
C         -0.54417       -2.50494        1.11296
O         -0.44255       -3.19430        2.04160
H         -2.82472        2.68762       -0.77348
H         -2.47811        1.47501       -2.02440
C         -0.72552        2.53850       -1.31354
H         -0.41782        3.07661       -0.40040
H          0.00345        1.72009       -1.45037
C         -0.60339        3.49748       -2.50004
H         -1.37248        4.28445       -2.38470
C          0.76528        4.17006       -2.48057
H          0.93685        4.70959       -1.53568
H          0.87605        4.89006       -3.30604
H          1.56842        3.42030       -2.58463
C         -0.83947        2.79449       -3.83224
H         -0.73090        3.49352       -4.67584
H         -1.84540        2.35390       -3.89851
H         -0.10924        1.97996       -3.97594
H         -4.13175       -0.26147       -0.77211
H         -3.87763       -0.84002        0.86197
C         -4.82709        1.11274        0.75306
H         -4.74153        2.03950        0.16059
H         -4.56739        1.39087        1.78815
C         -6.26671        0.62043        0.71398
H         -6.57618        0.37311       -0.31416
H         -6.39145       -0.29008        1.32156
H         -6.96535        1.37848        1.10016
H         -0.76962        1.90233        1.59807
H         -2.49145        2.23100        1.80275
C         -1.75027        0.52203        2.93088
H         -1.09052       -0.34053        2.74011
H         -2.75660        0.09360        3.08049
C         -1.31051        1.25179        4.19050
H         -0.28631        1.64609        4.08237
H         -1.96827        2.10725        4.41405
H         -1.31924        0.58569        5.06661
H          1.26660        0.53731        2.02103
H          1.08582        1.59261        0.63098
C          3.12036        1.44240        1.35361
H          3.83063        0.65656        1.66060
H          3.52937        1.88389        0.42816
C          3.10323        2.52920        2.43457
H          2.71251        2.06589        3.36071
C          4.51833        3.02044        2.71614
H          5.18306        2.19115        3.00433
H          4.53292        3.76208        3.52968
H          4.95173        3.49948        1.82216
C          2.18508        3.69225        2.07225
H          2.22609        4.48196        2.83807
H          1.13377        3.38012        1.98149
H          2.48448        4.14396        1.11091
H          3.65681       -1.45588        0.89415
H          2.23660       -2.03944        1.77961
C          2.70662       -3.20743        0.02204
H          3.17401       -3.05623       -0.96676
H          1.67540       -3.53963       -0.18238
C          3.46215       -4.27941        0.79092
H          4.49947       -3.97345        1.00382
H          2.97141       -4.48740        1.75498
H          3.50215       -5.22427        0.22775
H          1.99250       -0.91341       -2.34133
H          1.96474        0.78353       -1.89564
C          3.90536       -0.16859       -1.66170
H          4.30053       -1.17105       -1.42920
H          4.31177        0.49995       -0.88818
C          4.41306        0.26935       -3.02788
H          4.04613       -0.39960       -3.82274
H          4.07039        1.28795       -3.27242
H          5.51287        0.26779       -3.07090
