98
Cat767.ts34.5.log	Energy: -1728347.1172596
C          0.38068       -0.11690       -3.68043
H          0.09182        0.64969       -4.40441
H          1.44696       -0.35972       -3.68096
C         -0.57234       -1.15856       -3.41457
H         -1.56429       -1.11290       -3.87329
H         -0.20311       -2.18687       -3.32144
H         -0.62217       -1.29474       -1.82516
Ir        -0.42648        0.37264       -1.73630
O          2.86069       -0.03625       -1.71241
C          2.11497        1.28996        0.58902
C          1.78779       -1.54397        0.26834
O         -1.45188       -0.26857        1.46417
C         -2.26276        2.08218        0.70174
C         -3.56433       -0.27990       -0.20965
P         -1.90085        0.43972        0.00324
P          1.57106        0.03649       -0.62196
C         -0.75021        2.17351       -2.23321
O         -0.91240        3.27289       -2.54846
C          4.17123        0.10369       -1.34916
C          4.91742       -1.00064       -0.93838
H          4.43759       -1.97977       -0.89998
C          4.75650        1.37005       -1.40667
H          4.14911        2.21909       -1.72423
C          6.25760       -0.85514       -0.56171
C          7.05589       -2.05512       -0.13971
H          6.45530       -2.73907        0.47845
H          7.39968       -2.62771       -1.01726
H          7.94739       -1.76514        0.43440
C          6.08836        1.51902       -1.03565
H          6.55051        2.50859       -1.06972
C          6.83274        0.41928       -0.60973
H          7.87668        0.55025       -0.31280
C          1.43772        2.51026        0.64111
H          0.58055        2.67001       -0.01590
C          3.21806        1.09824        1.43825
H          3.77344        0.15865        1.41350
C          1.83976        3.51124        1.52277
H          1.28277        4.45153        1.55183
C          3.61638        2.10169        2.31113
H          4.48041        1.93369        2.96022
C          2.93426        3.32616        2.37110
C          3.38072        4.40173        3.31672
H          4.38713        4.76529        3.05323
H          2.69757        5.26224        3.30136
H          3.43549        4.02658        4.35073
C          1.66301       -1.68057        1.65201
H          1.52082       -0.79783        2.27830
C          1.92932       -2.70444       -0.50838
H          2.01686       -2.61512       -1.59501
C          1.69337       -2.94262        2.24354
H          1.57869       -3.02721        3.32684
C          1.96817       -3.95679        0.08831
H          2.09208       -4.84748       -0.53515
C          1.84348       -4.10029        1.47894
C          1.83317       -5.46080        2.10853
H          2.66535       -6.08226        1.74322
H          1.90375       -5.39870        3.20323
H          0.89793       -5.99268        1.86771
C         -1.51369       -1.58834        1.78166
C         -1.55099       -2.60702        0.83221
H         -1.52687       -2.35638       -0.22901
C         -1.53036       -1.89740        3.14568
H         -1.50717       -1.08111        3.86990
C         -1.59622       -3.94775        1.22895
C         -1.60521       -5.02749        0.18738
H         -0.63458       -5.06750       -0.33389
H         -1.79531       -6.01582        0.62918
H         -2.37568       -4.83934       -0.57603
C         -1.57841       -3.22807        3.54171
H         -1.59573       -3.47276        4.60678
C         -1.61288       -4.25058        2.59308
H         -1.65757       -5.29408        2.91502
C         -1.69737        2.51636        1.90193
H         -1.07056        1.83652        2.48010
C         -3.06207        2.96488       -0.03503
H         -3.50901        2.63890       -0.97815
C         -1.92684        3.81579        2.35195
H         -1.47312        4.14357        3.29158
C         -3.28744        4.25575        0.42467
H         -3.91377        4.93237       -0.16329
C         -2.72069        4.70723        1.62525
C         -2.96713        6.10715        2.10619
H         -4.03983        6.28300        2.28624
H         -2.43054        6.31261        3.04299
H         -2.64099        6.84756        1.35865
C         -4.43678       -0.39742        0.88101
H         -4.11878       -0.05717        1.86973
C         -3.97988       -0.71588       -1.46606
H         -3.28999       -0.61334       -2.30864
C         -5.69740       -0.94996        0.70680
H         -6.36865       -1.04214        1.56540
C         -5.25038       -1.26542       -1.63444
H         -5.56636       -1.60210       -2.62564
C         -6.12697       -1.39450       -0.55392
C         -7.49301       -1.99109       -0.72291
H         -8.27724       -1.27921       -0.42003
H         -7.68239       -2.27990       -1.76597
H         -7.61333       -2.88835       -0.09508
