82
Cat749.ts34.5.log	Energy: -1345992.4144640
C          1.45454       -2.67618       -1.47654
H          1.06127       -3.23337       -2.33183
H          2.47291       -2.30113       -1.62814
C          1.11262       -3.16889       -0.16155
H          0.39774       -3.99166       -0.06578
H          1.91184       -3.23355        0.58672
H          0.78777       -1.86896        0.64548
Ir        -0.00390       -1.29235       -0.72620
C          2.13403        1.12654        0.85550
C          2.81713        0.55192       -1.88345
C          0.47971        2.11857       -1.28303
C         -2.68528        0.88306        0.06595
C         -3.03605       -1.75569        1.07633
C         -1.10973       -0.06574        2.38558
P         -1.68238       -0.53789        0.69689
P          1.37189        0.60090       -0.73210
C         -1.12622       -1.37518       -2.23585
O         -1.80659       -1.40036       -3.17591
C          1.72555        2.26601        1.55432
H          0.99219        2.93304        1.10123
C          3.06566        0.26966        1.48575
O          3.42104       -0.83312        0.79158
C          4.30119       -1.75758        1.36531
H          5.28812       -1.30941        1.57496
H          4.42514       -2.56554        0.63305
H          3.89526       -2.18073        2.30089
C          2.21423        2.56652        2.82694
H          1.87666        3.46800        3.34323
C          3.56180        0.56523        2.75749
H          4.28081       -0.09771        3.23899
C          3.13522        1.71513        3.42475
H          3.53032        1.93563        4.41907
H          3.39459        1.48605       -1.78363
H          3.46447       -0.26103       -1.52273
C          2.40326        0.30382       -3.32756
H          1.79988        1.15107       -3.69641
H          1.73450       -0.57217       -3.35729
C          3.59326        0.08853       -4.24954
H          4.26568        0.96181       -4.25321
H          4.18761       -0.78309       -3.93104
H          3.27165       -0.08946       -5.28712
H         -0.12916        1.78415       -2.13853
H         -0.25405        2.33344       -0.49162
C          1.28253        3.36335       -1.63915
H          1.88645        3.16660       -2.53998
H          2.00721        3.59411       -0.84058
C          0.38645        4.56862       -1.88447
H         -0.34347        4.36574       -2.68413
H         -0.19033        4.82562       -0.98069
H          0.96729        5.45765       -2.17436
C         -3.53064        0.60790       -1.01603
H         -3.58068       -0.41060       -1.40667
C         -2.60061        2.22287        0.49876
O         -1.72767        2.50133        1.49465
C         -1.66122        3.79396        2.02385
H         -1.31833        4.53014        1.27516
H         -0.93130        3.75487        2.84285
H         -2.63502        4.12345        2.42584
C         -4.29338        1.59395       -1.63579
H         -4.93687        1.33508       -2.47863
C         -3.36958        3.21843       -0.11478
H         -3.30377        4.25092        0.22812
C         -4.21466        2.90331       -1.17553
H         -4.80412        3.69394       -1.64568
H         -3.49327       -1.46158        2.03776
H         -3.81692       -1.62508        0.31158
C         -2.58696       -3.21001        1.08776
H         -1.79146       -3.35715        1.83605
H         -2.11379       -3.42536        0.11523
C         -3.73326       -4.17238        1.35573
H         -4.19641       -3.98892        2.33897
H         -4.52508       -4.06994        0.59608
H         -3.39099       -5.21852        1.33943
H         -0.34036        0.70466        2.24141
H         -1.94564        0.41191        2.92069
C         -0.53251       -1.21464        3.19998
H          0.18693       -1.77424        2.57839
H         -1.32826       -1.92849        3.47063
C          0.16408       -0.71999        4.45884
H          1.00090       -0.05066        4.20466
H         -0.52806       -0.15682        5.10565
H          0.56676       -1.55629        5.05115
