58
Cat755.ts34.5.log	Energy: -1148840.2552201
C         -4.07797        1.23467       -0.21970
H         -4.89454        0.83128        0.38541
H         -3.92792        2.31109       -0.08682
C         -3.91337        0.69060       -1.54599
H         -4.52259       -0.16284       -1.85548
H         -3.72290        1.38715       -2.37047
H         -2.33457        0.46908       -1.69634
Ir        -2.34077       -0.03577       -0.09176
O          0.50714        1.60629       -0.57688
C         -1.29125        3.37413        0.44674
C         -0.07791        1.44943        2.11741
O          0.60279       -1.39785        0.42575
C         -1.09400       -3.34251       -0.42789
C         -0.00349       -1.44527       -2.25575
P         -0.73406       -1.56370       -0.59238
P         -0.82980        1.60400        0.46149
C         -3.04671       -1.12608        1.29037
O         -3.43567       -1.80690        2.14126
C          1.68252        2.25796       -0.34293
C          2.66951        1.65336        0.43717
H          2.45618        0.68367        0.88828
C          1.92605        3.49341       -0.94795
H          1.15050        3.94404       -1.56995
C          3.91630        2.25988        0.61777
C          4.96131        1.58821        1.46125
H          4.97830        0.50198        1.28415
H          5.96436        1.98897        1.25756
H          4.75665        1.73661        2.53450
C          3.16370        4.10567       -0.76657
H          3.36436        5.06814       -1.24375
C          4.15168        3.49678        0.00609
H          5.12205        3.98419        0.13111
H         -1.68426        3.64171       -0.54460
H         -2.08641        3.53187        1.19044
H         -0.43412        4.02062        0.68957
H         -0.90007        1.55127        2.84125
H          0.33718        0.43684        2.20966
H          0.69506        2.20525        2.32224
C          1.77684       -2.08415        0.30267
C          2.77850       -1.60417       -0.54246
H          2.58379       -0.70400       -1.12792
C          2.00246       -3.21685        1.08851
H          1.21496       -3.56547        1.75904
C          4.02315       -2.23906       -0.61359
C          5.08770       -1.70213       -1.52615
H          4.86297       -1.94057       -2.57878
H          5.15897       -0.60615       -1.45227
H          6.07312       -2.12867       -1.29223
C          3.23676       -3.85649        1.01661
H          3.42361       -4.73886        1.63352
C          4.23928       -3.37405        0.17585
H          5.20710       -3.88050        0.13729
H         -1.48213       -3.53602        0.58217
H         -1.88090       -3.59807       -1.15209
H         -0.20373       -3.96290       -0.61206
H         -0.81102       -1.62622       -2.98002
H          0.36339       -0.41771       -2.38708
H          0.80918       -2.16831       -2.41695
