102
Cat796.ts34.5.log	Energy: -1683278.9179131
C          2.19161       -2.58341       -1.93309
H          2.31813       -2.58205       -3.01985
H          3.13885       -2.69687       -1.39201
C          1.03115       -3.27971       -1.41295
H          0.27182       -3.64573       -2.11060
H          1.17914       -3.98415       -0.58366
H          0.53550       -2.37078       -0.28057
Ir         0.83455       -1.04671       -1.29293
C          3.39700       -0.62260        1.41033
C          3.63879        1.00467       -0.81321
C          1.50778        1.57110        0.95369
C         -1.73349        1.30902       -1.49727
C         -2.61662       -1.40288       -1.06223
C         -1.52454       -0.02981        1.17909
P         -1.25136       -0.25842       -0.61739
P          2.28493        0.14755        0.10182
C          0.73223       -0.18350       -2.96534
O          0.66689        0.36598       -3.98313
H          4.13561       -1.16302        0.79622
H          3.93853        0.19311        1.91329
C          2.78147       -1.55662        2.40476
C          2.73852       -1.24533        3.76977
H          3.17088       -0.30545        4.12334
C          2.25622       -2.78296        1.98753
H          2.32419       -3.04539        0.93055
C          2.16655       -2.13225        4.67770
H          2.14825       -1.88345        5.74173
C          1.65463       -3.67618        2.87987
C          1.04302       -4.95154        2.37736
H          0.07709       -4.75292        1.88298
H          1.69066       -5.44388        1.63612
H          0.85596       -5.66259        3.19425
C          1.61746       -3.33504        4.23643
H          1.16326       -4.02419        4.95370
C          4.35445        2.05790       -0.22609
H          4.07477        2.41904        0.76762
C          4.01079        0.57935       -2.08944
H          3.45364       -0.23493       -2.55755
C          5.40598        2.66523       -0.90215
H          5.94661        3.48903       -0.42690
C          5.07011        1.18787       -2.76103
H          5.34236        0.83790       -3.76071
C          5.78350        2.24212       -2.18435
C          6.89997        2.92370       -2.91960
H          7.74946        3.13715       -2.25339
H          7.26514        2.31169       -3.75637
H          6.56509        3.88816       -3.33651
C          1.16520        1.56267        2.30944
H          1.43758        0.71693        2.93945
C          1.12326        2.67441        0.17957
H          1.39555        2.70963       -0.87938
C          0.43629        2.61113        2.86400
H          0.16408        2.56819        3.92203
C          0.40252        3.72258        0.74280
H          0.12201        4.57656        0.11885
C          0.02636        3.70184        2.09159
C         -0.83051        4.78388        2.67830
H         -0.52372        5.03514        3.70456
H         -0.79628        5.70258        2.07498
H         -1.88374        4.45713        2.72673
H         -0.92686        2.01484       -1.25402
H         -1.59387        1.02981       -2.55352
C         -3.07693        1.94419       -1.29936
C         -4.25467        1.33914       -1.75268
H         -4.21070        0.38154       -2.27465
C         -3.16839        3.18689       -0.65817
H         -2.24849        3.66411       -0.30768
C         -5.48496        1.95432       -1.53097
H         -6.40012        1.46870       -1.87878
C         -4.39349        3.81904       -0.43214
C         -4.45411        5.16008        0.24117
H         -3.54394        5.35878        0.82537
H         -4.55271        5.97063       -0.50011
H         -5.31895        5.23336        0.91743
C         -5.55852        3.17784       -0.87050
H         -6.53123        3.64728       -0.69853
C         -2.57729       -2.02395       -2.31721
H         -1.70473       -1.86454       -2.95819
C         -3.71737       -1.63623       -0.23332
H         -3.77056       -1.16359        0.74951
C         -3.62582       -2.83302       -2.73993
H         -3.58054       -3.29915       -3.72850
C         -4.75714       -2.46147       -0.65749
H         -5.61065       -2.62990        0.00535
C         -4.73541       -3.06974       -1.91635
C         -5.84513       -3.97564       -2.36283
H         -6.76891       -3.79275       -1.79571
H         -6.06613       -3.84459       -3.43261
H         -5.57192       -5.03403       -2.21579
C         -2.36915        0.93430        1.73819
H         -2.90145        1.64018        1.10359
C         -0.88813       -0.93217        2.04075
H         -0.20502       -1.67710        1.62692
C         -2.54901        1.00267        3.11869
H         -3.20833        1.77243        3.53046
C         -1.08553       -0.87022        3.41468
H         -0.56588       -1.58659        4.05554
C         -1.91099        0.10807        3.98219
C         -2.07176        0.20806        5.47043
H         -2.15663       -0.78618        5.93393
H         -1.19678        0.70166        5.92649
H         -2.96092        0.79345        5.74465
