104
Cat722.ts34.5.log	Energy: -1730076.9747024
C         -1.18380       -2.87699       -1.77286
H         -0.92647       -3.88488       -1.43607
H         -2.25248       -2.73581       -1.97125
C         -0.23112       -2.20119       -2.61203
H          0.73270       -2.67504       -2.82491
H         -0.61434       -1.63832       -3.47366
H         -0.00104       -0.79666       -2.01897
Ir        -0.22645       -1.44124       -0.46711
C         -2.37365        1.03266       -1.84700
C         -3.68961       -0.98003       -0.31479
C         -2.30177        1.07624        1.09341
C          2.09728       -0.13525        1.84186
C          3.26370       -1.58517       -0.38093
C          2.22847        1.04624       -0.88228
P          1.82946       -0.48413        0.04888
P         -2.11409       -0.03433       -0.36529
C         -0.21364       -2.48946        1.08533
O         -0.21344       -3.09590        2.07576
H         -3.41414        1.37829       -1.90144
H         -2.19172        0.35620       -2.69871
C         -1.43025        2.22133       -1.90392
H         -1.74737        2.94992       -1.13933
H         -0.40807        1.90602       -1.63459
C         -1.40396        2.89900       -3.27853
H         -2.44867        2.95747       -3.63933
C         -0.86694        4.32205       -3.18329
H         -1.47187        4.93379       -2.49483
H         -0.86847        4.81952       -4.16603
H          0.16901        4.31878       -2.81111
C         -0.59783        2.08137       -4.28272
H         -0.62664        2.53405       -5.28629
H         -0.97807        1.05206       -4.37487
H          0.45651        2.01860       -3.96708
C         -4.56644       -1.04875       -1.39937
H         -4.37130       -0.44821       -2.28878
C         -3.96672       -1.78326        0.81537
O         -3.08399       -1.70430        1.82437
C         -3.25007       -2.49278        2.96797
H         -4.18262       -2.24073        3.50271
H         -2.38982       -2.28301        3.61436
H         -3.24884       -3.56844        2.72294
C         -5.69429       -1.87228       -1.38021
H         -6.36043       -1.90525       -2.24497
C         -5.09870       -2.60190        0.84335
H         -5.31241       -3.21519        1.71896
C         -5.95831       -2.64306       -0.25500
H         -6.83820       -3.29020       -0.22243
C         -1.48170        0.83157        2.19315
H         -0.75897        0.01840        2.09766
C         -3.27478        2.09094        1.19702
O         -4.09055        2.26936        0.13840
C         -5.11929        3.21438        0.20739
H         -5.81705        2.99893        1.03502
H         -5.66529        3.15072       -0.74249
H         -4.72943        4.24081        0.32626
C         -1.58704        1.56967        3.37090
H         -0.94130        1.34378        4.22200
C         -3.36814        2.85876        2.36545
H         -4.10716        3.65614        2.44586
C         -2.52757        2.59283        3.44567
H         -2.62189        3.19203        4.35490
H          1.95061       -1.12041        2.31640
H          1.23123        0.47971        2.11361
C          3.38420        0.51074        2.32387
H          4.22028       -0.19060        2.18252
H          3.62028        1.39164        1.70399
C          3.33635        0.93593        3.79510
H          2.96151        0.07565        4.38173
C          4.73739        1.26870        4.29561
H          5.41673        0.40807        4.19258
H          4.72954        1.56805        5.35551
H          5.16801        2.10407        3.71772
C          2.39154        2.11072        4.02399
H          2.33414        2.37553        5.09143
H          1.37021        1.89711        3.67766
H          2.74450        3.00104        3.47684
C          2.98391       -2.92842       -0.63943
H          1.93030       -3.22743       -0.60108
C          4.61438       -1.16756       -0.43897
O          4.86686        0.13008       -0.19138
C          6.16601        0.63017       -0.30576
H          6.85316        0.16328        0.42204
H          6.10218        1.70568       -0.09714
H          6.57109        0.48788       -1.32284
C          3.98599       -3.85121       -0.93831
H          3.73022       -4.89551       -1.12847
C          5.62286       -2.08532       -0.75436
H          6.66308       -1.76308       -0.80553
C          5.30592       -3.42128       -0.99750
H          6.10755       -4.12447       -1.23754
C          2.86552        0.94961       -2.12125
H          3.14244       -0.04051       -2.49296
C          1.83420        2.32131       -0.43300
O          1.11903        2.37170        0.70880
C          0.55407        3.58792        1.11658
H          1.32709        4.31752        1.41497
H         -0.08220        3.35965        1.98023
H         -0.07067        4.02622        0.32042
C          3.16829        2.07747       -2.88069
H          3.66962        1.97034       -3.84483
C          2.17017        3.46142       -1.17272
H          1.89547        4.45106       -0.80796
C          2.83957        3.33703       -2.38852
H          3.08681        4.23591       -2.95844
