104
Cat706.ts34.5.log	Energy: -1730085.8740229
C          1.03899       -3.32819        1.34160
H          1.01838       -4.26193        0.77177
H          2.00012       -3.14134        1.83409
C         -0.16547       -2.97268        2.05592
H         -1.06917       -3.57582        1.92586
H         -0.05881       -2.61393        3.08787
H         -0.35577       -1.44543        1.78164
Ir         0.15415       -1.72847        0.19974
C          2.32410        0.37372        2.20010
C          3.57952       -0.87313       -0.00567
C          1.89917        1.29638       -0.51467
C         -1.67925        0.20699       -2.15328
C         -3.27570       -1.15783       -0.17436
C         -1.78379        1.16492        0.56402
P         -1.63117       -0.37688       -0.40625
P          1.92895       -0.23143        0.49906
C          0.19041       -2.58061       -1.48066
O          0.21476       -3.05444       -2.53954
H          3.16101        1.09224        2.15547
H          2.71865       -0.52199        2.70701
C          1.14633        0.95132        2.97099
H          0.68260        1.77249        2.39958
H          0.35695        0.18396        3.04976
C          1.50727        1.45700        4.37127
H          2.30200        2.21938        4.25483
C          0.30908        2.13126        5.02915
H         -0.08162        2.96259        4.42385
H          0.57081        2.52758        6.02285
H         -0.51516        1.41151        5.16466
C          2.05523        0.34716        5.26242
H          2.28543        0.72542        6.27051
H          2.97774       -0.09680        4.85975
H          1.31408       -0.46291        5.37270
C          4.72119       -0.05488        0.04643
H          4.63410        0.98434        0.37571
C          3.72641       -2.17565       -0.47836
H          2.84040       -2.81104       -0.54334
C          5.96221       -0.53212       -0.33897
H          6.85279        0.09846       -0.30480
C          4.96975       -2.67197       -0.87423
H          5.04047       -3.69621       -1.24103
C          6.09843       -1.85088       -0.80117
O          7.34190       -2.22982       -1.15607
C          7.53787       -3.52946       -1.63755
H          6.95947       -3.71801       -2.55924
H          8.60747       -3.62367       -1.86449
H          7.26397       -4.29169       -0.88671
C          1.75841        1.13088       -1.90385
H          1.67662        0.11828       -2.31032
C          2.00890        2.59373       -0.01791
H          2.12916        2.76701        1.05297
C          1.71419        2.21980       -2.75594
H          1.61737        2.09457       -3.83610
C          1.94478        3.70630       -0.86355
H          2.01945        4.70562       -0.43345
C          1.78829        3.52420       -2.23958
O          1.69487        4.52356       -3.13994
C          1.72515        5.84508       -2.68322
H          2.67859        6.08591       -2.18038
H          1.61850        6.48754       -3.56642
H          0.89440        6.05692       -1.98602
H         -1.52576       -0.69895       -2.76205
H         -0.76309        0.80466       -2.27889
C         -2.92003        0.96306       -2.60423
H         -3.76742        0.26027       -2.64688
H         -3.19680        1.72572       -1.85440
C         -2.76862        1.65814       -3.96142
H         -2.33067        0.92630       -4.66612
C         -4.13223        2.07305       -4.50194
H         -4.80036        1.20591       -4.62038
H         -4.04396        2.56890       -5.48124
H         -4.62465        2.78113       -3.81422
C         -1.83268        2.85988       -3.88165
H         -1.69321        3.32637       -4.86912
H         -0.83503        2.59382       -3.50342
H         -2.24786        3.62744       -3.20652
C         -4.46137       -0.41762       -0.02464
H         -4.42301        0.67337        0.01025
C         -3.36644       -2.55009       -0.19503
H         -2.44053       -3.12614       -0.29418
C         -5.68683       -1.05216        0.09622
H         -6.61167       -0.48534        0.21934
C         -4.59387       -3.20318       -0.08397
H         -4.62153       -4.29286       -0.10671
C         -5.76530       -2.45309        0.06374
O         -6.99776       -2.98142        0.18782
C         -7.14113       -4.37392        0.16135
H         -6.59577       -4.85902        0.99010
H         -8.21282       -4.58229        0.27229
H         -6.79061       -4.80499       -0.79299
C         -2.32256        1.12073        1.86091
H         -2.72346        0.17982        2.24722
C         -1.27189        2.37829        0.10570
H         -0.83117        2.45519       -0.88977
C         -2.35179        2.24816        2.66272
H         -2.76832        2.21875        3.67096
C         -1.28204        3.52070        0.90866
H         -0.85569        4.44339        0.51509
C         -1.81877        3.45911        2.19622
O         -1.85008        4.49570        3.06083
C         -1.30534        5.72027        2.65901
H         -1.83178        6.13582        1.78162
H         -1.42314        6.41084        3.50361
H         -0.23092        5.63129        2.41758
