98
Cat769.ts34.5.log	Energy: -1728346.7641914
C         -0.40493       -0.86977       -3.62145
H         -0.11500       -1.79617       -4.12441
H         -1.47584       -0.65132       -3.65730
C          0.53031        0.22025       -3.66664
H          1.51447        0.06836       -4.11921
H          0.14104        1.22972       -3.84432
H          0.60111        0.77851       -2.17271
Ir         0.45109       -0.80908       -1.63880
O         -2.83972       -0.45091       -1.65237
C         -2.04363       -1.22215        0.87374
C         -1.78252        1.47775       -0.06675
O          1.43049        0.67769        1.27345
C          2.35113       -1.76313        1.13345
C          3.55706        0.35289       -0.35183
P          1.92456       -0.36473        0.04575
P         -1.53454       -0.25733       -0.59444
C          0.84298       -2.66401       -1.66989
O          1.05042       -3.80046       -1.70210
C         -4.14535       -0.51325       -1.25293
C         -4.89679        0.65101       -1.09385
H         -4.42619        1.61545       -1.29033
C         -4.71807       -1.76271       -1.00702
H         -4.10718       -2.65821       -1.13139
C         -6.22675        0.58803       -0.66264
C         -7.02983        1.84767       -0.50975
H         -6.41748        2.66665       -0.10395
H         -7.42044        2.18587       -1.48402
H         -7.89154        1.69858        0.15643
C         -6.04065       -1.83079       -0.58194
H         -6.49229       -2.80477       -0.37833
C         -6.78818       -0.66693       -0.40174
H         -7.82426       -0.73262       -0.05899
C         -1.31298       -2.36445        1.21629
H         -0.43204       -2.63142        0.63010
C         -3.17654       -0.88376        1.62621
H         -3.75684        0.00472        1.36689
C         -1.70917       -3.14427        2.29914
H         -1.12444       -4.02607        2.57115
C         -3.59828       -1.66925        2.70239
C         -4.84640       -1.30455        3.45245
H         -4.80930       -0.26364        3.80985
H         -5.72860       -1.38800        2.79717
H         -5.00419       -1.95840        4.32162
C         -2.84378       -2.80111        3.03156
H         -3.15409       -3.42377        3.87566
C         -1.93547        2.43638       -1.07861
H         -1.98632        2.11633       -2.12304
C         -1.69722        1.89871        1.26181
H         -1.54314        1.16138        2.05285
C         -2.03147        3.78367       -0.75076
H         -2.16234        4.52870       -1.53989
C         -1.78836        3.25306        1.60576
C         -1.74316        3.68280        3.04225
H         -1.22657        2.93963        3.66512
H         -1.21875        4.64241        3.15448
H         -2.76180        3.80946        3.44623
C         -1.95544        4.18935        0.58175
H         -2.01840        5.25212        0.83058
C          1.50821        2.03539        1.25153
C          1.46755        2.78104        0.07598
H          1.36462        2.26798       -0.88119
C          1.62701        2.67593        2.48831
H          1.66673        2.06888        3.39467
C          1.53445        4.17709        0.11644
C          1.47660        4.95686       -1.16359
H          2.28013        4.64928       -1.85110
H          0.52006        4.78086       -1.68097
H          1.57408        6.03689       -0.98563
C          1.69414        4.06350        2.53127
H          1.78785        4.56829        3.49613
C          1.64700        4.81342        1.35603
H          1.70365        5.90396        1.39991
C          1.84729       -1.87426        2.43286
H          1.23752       -1.07173        2.84857
C          3.12570       -2.79304        0.59526
H          3.51416       -2.70008       -0.42366
C          2.12350       -3.02089        3.17342
H          1.73072       -3.11627        4.18883
C          3.40111       -3.95153        1.32737
C          4.20291       -5.05944        0.70991
H          3.68153       -5.46717       -0.17087
H          5.18554       -4.69935        0.36729
H          4.37009       -5.88265        1.41837
C          2.88811       -4.04945        2.62580
H          3.09002       -4.94870        3.21434
C          3.94521        0.49954       -1.68348
H          3.26252        0.16711       -2.47015
C          4.41106        0.76217        0.67707
H          4.09739        0.63799        1.71760
C          5.18772        1.05770       -1.97739
H          5.50403        1.17071       -3.01720
C          5.65286        1.33573        0.39609
C          6.54012        1.81646        1.50720
H          6.18829        2.78764        1.89287
H          6.54076        1.11281        2.35281
H          7.57770        1.94869        1.16939
C          6.02792        1.47343       -0.94734
H          6.99987        1.91410       -1.18688
