104
Cat716.ts34.5.log	Energy: -1730169.0965940
C          0.75109       -3.64012        1.30558
H          0.92590       -4.49234        0.64321
H          1.58898       -3.43085        1.97866
C         -0.58779       -3.44910        1.79438
H         -1.39169       -4.09490        1.43016
H         -0.72335       -3.16533        2.84373
H         -0.90060       -1.85806        1.60104
Ir        -0.03005       -1.96330        0.17482
C          1.41212        0.20440        2.68482
O          3.13105       -0.84255        1.14782
O          1.53217        0.89550        0.03865
C         -0.75275        0.51537       -2.17540
O         -2.87032       -0.73488       -1.41141
O         -1.80095        0.68534        0.44526
P         -1.39251       -0.39173       -0.73750
P          1.51298       -0.48240        0.99380
C          0.26165       -2.77853       -1.52117
O          0.45917       -3.24367       -2.55975
H          2.31437        0.81534        2.85313
H          1.49249       -0.67136        3.35058
C          0.13334        0.98888        2.92764
H          0.01799        1.74220        2.13291
H         -0.73753        0.32100        2.81503
C          0.05956        1.70231        4.27791
H          0.94179        2.36750        4.35205
C         -1.18975        2.57482        4.33200
H         -1.22670        3.28185        3.48853
H         -1.23712        3.15355        5.26748
H         -2.10010        1.95496        4.27780
C          0.10633        0.73175        5.45190
H          0.03515        1.26493        6.41253
H          1.03773        0.14551        5.46960
H         -0.73658        0.02161        5.40221
C          4.00883       -1.29824        0.19790
C          3.69128       -2.32822       -0.68337
H          2.70653       -2.78863       -0.62468
C          5.27603       -0.69057        0.19158
C          5.60947        0.37510        1.18875
H          4.94897        1.24834        1.07852
H          5.47728        0.00579        2.21761
H          6.64806        0.71200        1.06963
C          4.62730       -2.73821       -1.63075
H          4.36775       -3.53686       -2.32936
C          6.19581       -1.12740       -0.76514
H          7.18552       -0.66291       -0.78806
C          5.88006       -2.13254       -1.67978
H          6.61819       -2.44887       -2.42021
C          2.51849        1.84044       -0.07324
C          2.63974        2.84571        0.88937
H          1.95714        2.85256        1.73981
C          3.33617        1.81851       -1.21541
C          3.18702        0.77362       -2.28080
H          2.39036        0.05930       -2.04266
H          2.95437        1.24077       -3.25096
H          4.12029        0.20266       -2.40196
C          3.60988        3.83298        0.74535
H          3.70400        4.61558        1.50148
C          4.30207        2.82547       -1.33160
H          4.95479        2.82155       -2.20895
C          4.45004        3.81824       -0.36719
H          5.21658        4.58681       -0.48824
H         -0.36468       -0.28863       -2.82481
H          0.13976        1.03034       -1.79409
C         -1.68836        1.42285       -2.95985
H         -2.48614        0.80503       -3.39833
H         -2.19097        2.13960       -2.28979
C         -0.97766        2.20186       -4.07089
H         -0.42468        1.46958       -4.68962
C         -2.00219        2.89232       -4.96372
H         -2.70456        2.16841       -5.40529
H         -1.51635        3.43777       -5.78756
H         -2.59402        3.62105       -4.38491
C          0.02765        3.21109       -3.52407
H          0.54374        3.73715       -4.34197
H          0.80315        2.74139       -2.89983
H         -0.48131        3.97029       -2.90765
C         -3.92495       -1.37615       -0.81753
C         -3.77492       -2.59776       -0.16520
H         -2.78016       -3.04291       -0.11370
C         -5.18002       -0.75875       -0.94503
C         -5.31036        0.53982       -1.68098
H         -4.65444        1.31515       -1.25401
H         -5.01443        0.42899       -2.73589
H         -6.34514        0.90696       -1.64947
C         -4.88793       -3.21279        0.40388
H         -4.77106       -4.16946        0.91862
C         -6.27911       -1.40413       -0.37082
H         -7.26450       -0.93820       -0.45821
C         -6.14234       -2.61524        0.30579
H         -7.01822       -3.09502        0.74814
C         -2.10495        2.01571        0.47516
C         -1.20654        2.97118        0.00067
H         -0.26441        2.64619       -0.43898
C         -3.28622        2.38779        1.13750
C         -4.16087        1.34914        1.76695
H         -4.49642        0.59118        1.04514
H         -3.60778        0.80203        2.54707
H         -5.04631        1.80729        2.22774
C         -1.50981        4.32514        0.11777
H         -0.80356        5.06818       -0.25978
C         -3.56525        3.75468        1.23735
H         -4.48353        4.06346        1.74422
C         -2.69912        4.72006        0.72653
H         -2.94534        5.77982        0.82161
