70
Cat756.ts34.5.log	Energy: -1247437.4784850
C         -2.15730       -2.30561        1.85473
H         -3.10495       -2.80505        1.63467
H         -1.33533       -2.99806        2.06465
C         -2.22470       -1.08974        2.62581
H         -3.20097       -0.65927        2.86454
H         -1.49697       -0.95242        3.43425
H         -1.23879       -0.10157        1.89223
Ir        -1.79690       -0.72354        0.42901
O          1.58685       -0.95715        0.76709
C          0.57034       -3.28583       -0.18717
C          0.76880       -0.98857       -1.92151
O         -0.54912        2.12816       -1.08823
C         -3.01712        1.77984       -1.76016
C         -2.33510        2.70415        0.89387
P         -1.90098        1.41857       -0.34976
P          0.30103       -1.46537       -0.19936
C         -3.10362       -1.32945       -0.79592
O         -3.86760       -1.71442       -1.57526
C          2.91455       -1.07345        0.46978
C          3.54761       -0.08045       -0.27727
H          2.95760        0.76080       -0.64355
C          3.64625       -2.15386        0.96941
H          3.13908       -2.90916        1.57222
C          4.91646       -0.15679       -0.55374
C          5.57287        0.91771       -1.37045
H          5.33467        1.91480       -0.96958
H          6.66545        0.80168       -1.39055
H          5.21163        0.89836       -2.41146
C          5.00902       -2.23430        0.69705
H          5.58843       -3.07597        1.08449
C          5.64031       -1.24771       -0.05977
H          6.71148       -1.32084       -0.26454
H          0.52650       -3.58579        0.87250
C         -0.46700       -4.04326       -1.00096
H         -0.44297       -3.75962       -2.06459
H         -1.48165       -3.83614       -0.63068
H          1.59478       -3.49679       -0.53415
H         -0.29371       -5.12852       -0.94405
H          0.99145        0.08937       -1.87136
C          1.84890       -1.76162       -2.66502
H          1.56699       -2.81449       -2.81329
H          2.81604       -1.74163       -2.14505
H         -0.19249       -1.05163       -2.45742
H          2.00198       -1.32430       -3.66420
C          0.61947        2.46310       -0.48642
C          0.96399        2.08000        0.80993
H          0.30285        1.41937        1.37158
C          1.50783        3.23890       -1.24382
H          1.22088        3.52408       -2.25750
C          2.18645        2.46884        1.37118
C          2.55724        1.97540        2.73766
H          1.76440        2.18807        3.47129
H          2.69709        0.88242        2.71834
H          3.48983        2.43292        3.09546
C          2.71411        3.63988       -0.68179
H          3.40099        4.25556       -1.26806
C          3.05379        3.26579        0.61984
H          4.00783        3.58060        1.04970
H         -2.77495        1.02640       -2.52623
C         -4.49635        1.74338       -1.41014
H         -4.77398        2.56207       -0.72889
H         -4.77819        0.79456       -0.93159
H         -2.71786        2.75757       -2.16842
H         -5.10637        1.85062       -2.31940
H         -1.67200        2.53972        1.75681
C         -2.27780        4.14711        0.42221
H         -2.96510        4.33390       -0.41670
H         -1.26485        4.42078        0.09289
H         -3.34280        2.41767        1.23856
H         -2.56030        4.83111        1.23704
