88
Cat707.ts34.5.log	Energy: -1691792.3538890
C         -1.36688       -0.96895       -3.15391
H         -1.25652       -1.96162       -3.59967
H         -2.40749       -0.63438       -3.08295
C         -0.35820        0.00967       -3.48083
H          0.51787       -0.28978       -4.06374
H         -0.68965        1.02262       -3.74209
H         -0.01322        0.71386       -2.11958
Ir        -0.15933       -0.79642       -1.38104
C         -1.72666       -0.56229        1.81010
C         -2.06946        1.80880        0.25394
C         -3.54809       -0.54887       -0.35873
C          2.44768       -1.49696        0.91214
C          3.15189        0.29790       -1.21911
C          1.49827        1.25855        0.90798
P          1.72229       -0.19898       -0.17864
P         -1.83961       -0.00312        0.05154
C          0.18164       -2.64356       -1.21495
O          0.40169       -3.77295       -1.07563
H         -2.64708       -0.25389        2.33478
H         -0.88793        0.00112        2.24721
C         -1.50895       -2.05745        1.95905
H         -2.30217       -2.60095        1.41838
H         -0.56787       -2.33649        1.45553
C         -1.48371       -2.55230        3.40781
H         -2.47168       -2.32935        3.85330
C         -1.28458       -4.06322        3.43745
H         -2.06000       -4.58206        2.85313
H         -1.31598       -4.45533        4.46575
H         -0.30788       -4.33639        3.00379
C         -0.42618       -1.84958        4.25270
H         -0.41548       -2.24321        5.28073
H         -0.59703       -0.76431        4.31824
H          0.58108       -2.00813        3.83269
C         -2.07848        2.58922       -0.91126
H         -1.95853        2.09911       -1.88096
C         -2.20819        2.45541        1.48716
H         -2.20010        1.88489        2.41649
C         -2.22568        3.96966       -0.85568
H         -2.23680        4.58388       -1.75796
C         -2.34079        3.84155        1.56291
H         -2.42034        4.35698        2.52155
C         -2.34787        4.58043        0.38896
F         -2.46200        5.90550        0.45157
C         -4.67930        0.23216       -0.09006
H         -4.56359        1.23150        0.33628
C         -3.72520       -1.82285       -0.91522
H         -2.84290       -2.42267       -1.15417
C         -5.95840       -0.24444       -0.36554
H         -6.84844        0.35606       -0.16844
C         -4.99843       -2.31737       -1.18270
H         -5.14928       -3.30823       -1.61493
C         -6.10042       -1.51746       -0.90486
F         -7.32144       -1.97777       -1.16919
H          2.49194       -2.39234        0.27039
H          1.67166       -1.71753        1.66289
C          3.80528       -1.22750        1.54059
H          4.51905       -0.95969        0.74519
H          3.75444       -0.34716        2.20585
C          4.38078       -2.41056        2.32551
H          4.46103       -3.26202        1.62388
C          5.78371       -2.07616        2.81908
H          6.44554       -1.78977        1.98700
H          6.24290       -2.93268        3.33619
H          5.75830       -1.23310        3.52980
C          3.48454       -2.84256        3.48070
H          3.94625       -3.66040        4.05489
H          2.50414       -3.20295        3.13495
H          3.31060       -2.00589        4.17912
C          4.10978        1.23368       -0.80684
H          4.00220        1.73845        0.15598
C          3.31166       -0.33470       -2.45745
H          2.55037       -1.05357       -2.77679
C          5.20127        1.53796       -1.61542
H          5.95241        2.27008       -1.31342
C          4.40471       -0.04970       -3.27062
H          4.54343       -0.53562       -4.23812
C          5.33437        0.88845       -2.83768
F          6.37592        1.17692       -3.61347
C          1.42487        1.16569        2.30136
H          1.59082        0.21081        2.80321
C          1.26881        2.50529        0.30578
H          1.29800        2.59218       -0.78337
C          1.12395        2.28364        3.08011
H          1.05309        2.21974        4.16743
C          0.99063        3.63135        1.06835
H          0.80254        4.60304        0.60921
C          0.90923        3.50092        2.45055
F          0.59769        4.56777        3.18399
