112
Cat704.ts34.5.log	Energy: -1451898.6853558
C         -1.38220        1.33602       -2.92885
H         -1.20395        0.89679       -3.91432
H         -2.44471        1.51928       -2.72827
C         -0.43344        2.31780       -2.46422
H          0.45681        2.53321       -3.06246
H         -0.82946        3.21868       -1.97886
H         -0.09200        1.92013       -0.96542
Ir        -0.20100        0.30816       -1.44494
C         -2.85682        1.75712        0.40506
C         -3.54391       -0.67363       -0.89422
C         -1.89123       -0.69687        1.63549
C          1.83216       -1.93763        0.29556
C          3.30244        0.18902       -1.09303
C          1.75205        0.76918        1.45075
P          1.70579       -0.14589       -0.17386
P         -2.08952        0.12676       -0.02941
C          0.22548       -1.16363       -2.53411
O          0.51177       -2.08848       -3.17673
H         -3.82479        1.61158        0.91253
H         -3.08340        2.21612       -0.57161
C         -1.96447        2.67752        1.22301
H         -1.79385        2.23475        2.21947
H         -0.96952        2.73065        0.74752
C         -2.51338        4.09583        1.40800
H         -3.54270        4.00600        1.80437
C         -1.68471        4.86412        2.43098
H         -1.65072        4.34091        3.39958
H         -2.09436        5.87103        2.60622
H         -0.64586        4.98386        2.08205
C         -2.58249        4.86336        0.09209
H         -3.00264        5.87009        0.24034
H         -3.20640        4.35482       -0.65794
H         -1.57406        4.98523       -0.33847
H         -3.77810        0.10295       -1.64836
C         -4.81384       -0.90820       -0.07382
H         -5.09943       -0.00709        0.49072
H         -4.62420       -1.69970        0.67137
C         -5.97146       -1.34754       -0.96827
H         -6.87203       -1.52776       -0.35826
H         -6.22406       -0.52324       -1.65980
C         -5.61434       -2.59026       -1.77515
H         -6.44557       -2.86673       -2.44421
H         -5.47686       -3.44133       -1.08313
C         -4.33036       -2.38160       -2.56979
H         -4.50176       -1.61154       -3.34390
H         -4.05488       -3.30339       -3.10738
C         -3.17779       -1.93613       -1.67611
H         -2.92842       -2.74949       -0.97353
H         -2.27149       -1.75191       -2.26861
H         -0.93220       -0.26319        1.97450
C         -1.66619       -2.20266        1.49926
H         -0.94765       -2.40567        0.68985
H         -2.61284       -2.68504        1.20108
C         -1.20029       -2.80669        2.81969
H         -1.06453       -3.89538        2.71483
H         -0.20771       -2.39304        3.07769
C         -2.17747       -2.49945        3.94913
H         -1.80074       -2.89914        4.90462
H         -3.13182       -3.01989        3.74986
C         -2.44352       -1.00281        4.06429
H         -1.51472       -0.49042        4.37718
H         -3.18712       -0.80421        4.85341
C         -2.91384       -0.41011        2.73732
H         -3.88868       -0.84803        2.47150
H         -3.08011        0.67122        2.85296
H          1.32212       -2.46203       -0.52775
H          1.16531       -2.04265        1.16544
C          3.17649       -2.60706        0.54789
H          3.83014       -2.44669       -0.32445
H          3.69319       -2.14929        1.40834
C          3.07963       -4.11726        0.78989
H          2.53205       -4.55383       -0.06644
C          4.47300       -4.73504        0.82095
H          5.02487       -4.53285       -0.11027
H          4.42621       -5.82691        0.95451
H          5.06537       -4.32363        1.65559
C          2.30970       -4.45376        2.06151
H          2.26668       -5.54195        2.22306
H          1.27441       -4.08594        2.03099
H          2.79841       -4.00655        2.94418
H          3.37617       -0.71983       -1.72331
C          4.59116        0.30615       -0.27344
H          4.70893       -0.53832        0.41740
H          4.54172        1.21422        0.35048
C          5.81453        0.40461       -1.18232
H          6.72783        0.49934       -0.57220
H          5.91711       -0.53780       -1.75075
C          5.69712        1.57073       -2.15553
H          6.56998        1.60183       -2.82789
H          5.70960        2.51792       -1.58572
C          4.40382        1.48582       -2.95722
H          4.44297        0.60004       -3.61698
H          4.30238        2.36036       -3.62046
C          3.18020        1.37291       -2.05498
H          3.05676        2.30676       -1.47798
H          2.26087        1.25033       -2.64655
H          0.70043        0.65833        1.77216
C          1.98672        2.27029        1.27473
H          1.32817        2.65883        0.48151
H          3.02155        2.44982        0.93794
C          1.75281        3.01899        2.58250
H          1.95488        4.09374        2.44438
H          0.68688        2.93742        2.85752
C          2.60607        2.45461        3.71200
H          2.39682        2.98502        4.65513
H          3.67338        2.63203        3.48601
C          2.37413        0.95790        3.87969
H          1.33142        0.78607        4.20543
H          3.01842        0.55278        4.67691
C          2.61729        0.19970        2.57666
H          3.68425        0.26865        2.31047
H          2.39771       -0.86828        2.72744
