86
Cat761.ts34.5.log	Energy: -1534796.0089047
C          2.06225       -1.38450       -2.48143
H          1.78722       -1.52775       -3.52978
H          2.95215       -0.76316       -2.33860
C          1.82176       -2.48440       -1.58403
H          1.28306       -3.36441       -1.94491
H          2.59701       -2.73712       -0.85052
H          1.18708       -1.82437       -0.31122
Ir         0.33260       -0.80059       -1.33571
O          1.86407        1.17143        1.14108
O          2.62463        1.53929       -1.25125
O          0.31884        2.36084       -0.35273
O         -2.17097       -0.32882        1.02138
O         -2.79421       -1.67275       -1.04634
O         -1.40906       -2.63581        0.82184
P         -1.49801       -1.32895       -0.14167
P          1.28284        1.06625       -0.44365
C         -0.70243       -0.39181       -2.88011
O         -1.33053       -0.12352       -3.80660
C          2.66598        0.24984        1.73300
C          3.45315       -0.64972        1.00833
H          3.45654       -0.60299       -0.08130
C          2.68972        0.23025        3.12961
H          2.07301        0.94431        3.67809
C          4.24860       -1.59443        1.66627
C          5.05728       -2.58257        0.87535
H          5.25959       -2.21687       -0.14163
H          6.01997       -2.79736        1.36198
H          4.52231       -3.54243        0.77919
C          3.48908       -0.69951        3.78524
H          3.51024       -0.71409        4.87778
C          4.25882       -1.61189        3.06483
H          4.88105       -2.33892        3.59277
C          3.53934        2.58576       -0.90241
H          3.34792        2.89328        0.13994
C          3.31772        3.75567       -1.83957
H          2.28088        4.11241       -1.78287
H          3.51405        3.44885       -2.87795
H          3.98894        4.59063       -1.58812
C          4.94312        2.02243       -0.99097
H          5.08296        1.20209       -0.27338
H          5.13342        1.63941       -2.00548
H          5.68550        2.80381       -0.76964
C          0.43373        3.55295        0.44168
H          1.50166        3.76769        0.61354
C         -0.25776        3.35941        1.77580
H          0.18812        2.52058        2.32459
H         -1.32651        3.15383        1.62419
H         -0.16019        4.27111        2.38501
C         -0.18862        4.67109       -0.36851
H          0.30256        4.77696       -1.34597
H         -1.25336        4.45545       -0.53966
H         -0.10656        5.62661        0.17068
C         -2.78680        0.86765        0.82160
C         -3.38341        1.44283        1.94600
H         -3.30825        0.91032        2.89700
C         -2.85789        1.50743       -0.41739
H         -2.39057        1.07105       -1.29866
C         -4.05040        2.66675        1.86168
C         -4.64506        3.29566        3.08847
H         -5.00914        2.53684        3.79630
H         -3.89392        3.90421        3.61957
H         -5.48383        3.95949        2.83440
C         -3.52848        2.72508       -0.50333
H         -3.58861        3.22715       -1.47200
C         -4.11953        3.30480        0.61670
H         -4.64306        4.25989        0.52627
C         -4.03257       -2.14912       -0.49075
H         -4.01629       -1.97775        0.59931
C         -4.13726       -3.63499       -0.76542
H         -3.28973       -4.16418       -0.30865
H         -4.12303       -3.82233       -1.84988
H         -5.07381       -4.04014       -0.35297
C         -5.14949       -1.33540       -1.10815
H         -5.02961       -0.26829       -0.87372
H         -5.14345       -1.45312       -2.20247
H         -6.12509       -1.67074       -0.72545
C         -1.19381       -2.65009        2.23918
H         -2.01670       -2.08340        2.70674
C          0.12139       -1.99668        2.60893
H          0.14789       -0.94895        2.28090
H          0.97379       -2.51833        2.14756
H          0.26058       -2.01125        3.69998
C         -1.27904       -4.10168        2.65765
H         -2.24543       -4.53515        2.36238
H         -0.47764       -4.68479        2.17917
H         -1.17379       -4.19212        3.74886
