90
Cat790.ts34.5.log	Energy: -1489712.9492178
C         -3.17819       -1.95062       -1.48064
H         -3.41865       -2.94648       -1.09831
H         -4.01769       -1.25068       -1.49626
C         -2.19002       -1.87375       -2.52262
H         -1.66104       -2.77871       -2.83476
H         -2.37826       -1.19010       -3.35926
H         -1.20539       -0.73536       -2.10075
Ir        -1.39687       -1.22098       -0.49471
C         -1.84409        2.46023       -0.81752
O         -3.91185        0.84701       -0.31822
O         -2.20582        1.40107        1.53648
C          1.55094        0.09734        0.84290
O          1.64565       -2.47422        0.39352
O          1.55131       -1.07291       -1.78591
P          0.88288       -1.18999       -0.30338
P         -2.28596        0.84396       -0.02052
C         -1.59159       -2.38907        0.97427
O         -1.73407       -3.07777        1.89282
H         -1.98004        2.28760       -1.89586
H         -2.61288        3.18144       -0.49800
C         -0.49202        3.04232       -0.53641
C         -0.18207        3.54027        0.73624
H         -0.91587        3.44102        1.53650
C          0.46021        3.17609       -1.55465
H          0.22385        2.79493       -2.55255
C          1.04447        4.15463        0.97082
H          1.27765        4.53590        1.96811
C          1.68476        3.81993       -1.34392
C          2.66249        4.03000       -2.46415
H          2.33961        3.52790       -3.38584
H          2.77528        5.10302       -2.68784
H          3.66221        3.64828       -2.20374
C          1.96807        4.30320       -0.06097
H          2.91941        4.80930        0.12706
C         -4.82652        1.87732        0.05416
H         -4.30458        2.60885        0.69751
C         -5.94321        1.24027        0.85789
H         -5.54464        0.75832        1.75990
H         -6.45267        0.47308        0.25491
H         -6.68459        1.99463        1.16195
C         -5.34021        2.56045       -1.19994
H         -4.52305        3.02626       -1.76868
H         -5.83201        1.82323       -1.85296
H         -6.07241        3.34227       -0.94715
C         -1.92010        0.54555        2.64309
H         -1.23148       -0.23992        2.28527
C         -3.18546       -0.12018        3.14287
H         -3.65576       -0.70103        2.33631
H         -3.90421        0.63208        3.50428
H         -2.95714       -0.81170        3.96719
C         -1.22179        1.38281        3.69331
H         -0.29129        1.81116        3.29302
H         -1.87001        2.20834        4.02695
H         -0.97014        0.76604        4.56879
H          1.18085        1.05017        0.43377
H          0.94235       -0.09983        1.74143
C          3.00243        0.17412        1.19949
C          3.63519       -0.84798        1.92237
H          3.05802       -1.71983        2.23137
C          3.75533        1.28813        0.82134
H          3.25333        2.10772        0.30076
C          4.99308       -0.75970        2.20845
H          5.48235       -1.56357        2.76437
C          5.12373        1.39037        1.09748
C          5.89100        2.60255        0.65339
H          5.84070        2.72708       -0.44050
H          5.47752        3.52065        1.10074
H          6.95107        2.53808        0.93603
C          5.73784        0.34460        1.79045
H          6.80637        0.39950        2.01621
C          1.79702       -3.75831       -0.21842
H          2.01544       -3.60033       -1.29024
C          0.54992       -4.61227       -0.10047
H         -0.29792       -4.14243       -0.61701
H          0.27210       -4.75067        0.95472
H          0.73522       -5.60077       -0.54764
C          2.99699       -4.39991        0.44965
H          3.88361       -3.75501        0.37152
H          2.78750       -4.56497        1.51787
H          3.22303       -5.37279       -0.01167
C          2.83514       -0.83869       -2.37366
H          2.74844       -1.34491       -3.35042
C          4.00845       -1.45259       -1.63702
H          3.89360       -2.53888       -1.53317
H          4.14945       -1.01565       -0.64053
H          4.92437       -1.26935       -2.21882
C          2.99884        0.64486       -2.62415
H          2.13009        1.03312       -3.17281
H          3.08275        1.19212       -1.67627
H          3.90573        0.84005       -3.21602
