98
Cat760.ts34.5.log	Energy: -1633390.2634097
C         -0.48128       -3.55151       -1.75726
H         -0.18415       -4.54250       -1.40446
H         -1.56178       -3.40030       -1.83630
C          0.36236       -2.90670       -2.72040
H          1.31698       -3.36048       -2.99826
H         -0.11047       -2.36090       -3.54294
H          0.53790       -1.35449       -2.17970
Ir         0.56725       -2.01281       -0.64242
O         -1.23168        0.71321       -0.17779
O         -2.69447       -1.21265       -0.98844
O         -2.02324       -1.15559        1.38596
O          1.47172        0.30512        1.45992
O          3.47964       -0.78408        0.54027
O          2.32222        0.87614       -0.87062
P          1.97318       -0.40263        0.06535
P         -1.36340       -0.94872       -0.09582
C          1.34328       -3.29701        0.52999
O          1.79617       -4.08430        1.24247
C         -2.22521        1.62802        0.02989
C         -2.59456        2.44069       -1.03946
H         -2.11685        2.27014       -2.00650
C         -2.80612        1.80772        1.28868
H         -2.51606        1.16141        2.11604
C         -3.54435        3.45442       -0.87784
C         -3.91361        4.33107       -2.03881
H         -4.23696        3.73024       -2.90300
H         -4.72952        5.02018       -1.78060
H         -3.05226        4.93503       -2.36646
C         -3.75961        2.80888        1.45154
H         -4.22198        2.95508        2.43067
C         -4.12591        3.62687        0.38322
H         -4.87259        4.41147        0.52890
C         -4.00129       -1.59152       -0.55799
H         -4.28804       -2.44773       -1.19105
H         -3.96118       -1.93214        0.48612
C         -4.99674       -0.46304       -0.71574
H         -5.97506       -0.83750       -0.36399
H         -4.72047        0.36174       -0.03773
C         -5.12208        0.05978       -2.13870
H         -5.39164       -0.77381       -2.81201
H         -4.13112        0.40917       -2.47113
C         -6.13958        1.18067       -2.26803
H         -7.14927        0.84161       -1.98457
H         -5.87900        2.02360       -1.60882
H         -6.19602        1.56308       -3.29884
C         -1.25360       -1.46270        2.54373
H         -0.21382       -1.67798        2.24632
H         -1.23659       -0.56645        3.18604
C         -1.87013       -2.64032        3.26472
H         -1.35443       -2.75152        4.23455
H         -2.92258       -2.40110        3.50017
C         -1.79287       -3.94558        2.48457
H         -0.73399       -4.20164        2.31639
H         -2.22351       -3.79025        1.48106
C         -2.50076       -5.09787        3.17735
H         -2.06946       -5.29362        4.17249
H         -3.57225       -4.88285        3.32132
H         -2.42359       -6.02844        2.59500
C          1.82651        1.56322        1.88155
C          0.79757        2.48267        2.06706
H         -0.22327        2.16999        1.84586
C          3.15267        1.91145        2.13060
H          3.93951        1.17298        1.97551
C          1.07054        3.78143        2.50324
C         -0.05006        4.75826        2.71477
H          0.26899        5.78917        2.50233
H         -0.91372        4.52254        2.07558
H         -0.40039        4.73360        3.76034
C          3.42853        3.20852        2.55918
H          4.46423        3.50039        2.74982
C          2.40413        4.13583        2.74187
H          2.64174        5.15080        3.07107
C          4.32951       -1.59806       -0.26274
H          5.15545       -1.88770        0.40433
H          3.78488       -2.51363       -0.55233
C          4.85111       -0.88019       -1.49247
H          5.53366       -1.57375       -2.01523
H          4.01195       -0.69922       -2.18618
C          5.55888        0.43348       -1.19406
H          6.43256        0.23788       -0.54685
H          4.87682        1.07259       -0.61218
C          5.99612        1.16962       -2.44930
H          6.68466        0.56262       -3.05973
H          5.12799        1.41837       -3.08137
H          6.50866        2.11311       -2.20778
C          1.51772        1.41674       -1.90880
H          2.15809        1.45335       -2.80637
H          0.67435        0.73770       -2.11705
C          1.02080        2.79932       -1.55087
H          0.43739        3.17180       -2.41245
H          0.31312        2.71515       -0.71133
C          2.11988        3.78894       -1.19554
H          2.85601        3.83490       -2.01864
H          2.66555        3.40869       -0.31726
C          1.58099        5.17902       -0.90258
H          1.07931        5.61307       -1.78329
H          0.84484        5.14818       -0.08435
H          2.38293        5.86922       -0.59976
