86
Cat763.ts34.5.log	Energy: -1629739.8902451
C          0.19759        1.08799       -3.29927
H          0.55689        0.49582       -4.14463
H         -0.81848        1.47516       -3.41940
C          1.14895        1.89221       -2.59539
H          2.20610        1.86454       -2.87319
H          0.82037        2.87857       -2.24543
H          0.97055        1.55898       -1.03387
Ir         0.60967       -0.02256       -1.47350
O         -2.69240       -0.31024       -1.54723
C         -1.90078       -0.28015        1.06044
C         -2.00209        2.11978       -0.55294
O          1.70634       -0.19703        1.74317
C          2.29011       -2.42619        0.52553
C          3.79269       -0.08058        0.03513
P          2.05418       -0.65338        0.16214
P         -1.47969        0.37396       -0.59293
C          0.56783       -1.72909       -2.29421
O          0.49468       -2.77321       -2.77851
C         -3.88076       -0.73564       -1.01153
C         -3.99114       -2.06665       -0.61504
H         -3.12687       -2.72041       -0.75221
C         -4.95836        0.13864       -0.85935
H         -4.86257        1.17928       -1.16982
C         -5.16780       -2.54740       -0.03388
C         -5.24692       -3.97044        0.43672
H         -4.58128       -4.13076        1.30072
H         -6.26741       -4.23925        0.74338
H         -4.92958       -4.67149       -0.35041
C         -6.13863       -0.33927       -0.29562
H         -6.98889        0.33655       -0.17459
C         -6.24319       -1.66538        0.11991
H         -7.17275       -2.02346        0.56997
C         -1.29762       -1.48356        1.43977
C         -2.85500        0.30474        1.90125
C         -2.57752       -1.49991        3.48435
C         -3.18406       -0.29997        3.11165
C         -1.63744       -2.09543        2.64337
H         -0.55810       -1.93996        0.77646
H         -1.16113       -3.03780        2.92464
H         -2.84204       -1.97390        4.43294
H         -3.92747        0.16394        3.76412
H         -3.34542        1.23466        1.60742
C         -2.67840        2.67695       -1.64619
C         -1.54776        2.96087        0.47150
C         -2.46788        4.88103       -0.67455
C         -1.78731        4.33064        0.41307
C         -2.90988        4.05101       -1.70364
H         -3.02599        2.02487       -2.45095
H         -3.44056        4.47472       -2.55986
H         -2.65228        5.95702       -0.72010
H         -1.43645        4.96953        1.22748
H         -1.00344        2.54392        1.32060
C          1.34008        1.04680        2.14897
C          1.84789        2.21099        1.56842
H          2.54678        2.13930        0.73338
C          0.45288        1.12732        3.22641
H          0.04456        0.20659        3.64607
C          1.48806        3.47051        2.06280
C          1.99313        4.71133        1.38708
H          3.02683        4.58635        1.03265
H          1.37109        4.94864        0.50723
H          1.96094        5.58044        2.05945
C          0.10941        2.37655        3.73052
H         -0.57912        2.44197        4.57628
C          0.62434        3.54193        3.15999
H          0.34528        4.51783        3.56564
C          1.92496       -2.99254        1.75106
C          2.82973       -3.23838       -0.47890
C          2.61987       -5.16854        0.95694
C          2.99434       -4.60289       -0.26216
C          2.08829       -4.36155        1.96069
H          1.51740       -2.35424        2.53588
H          1.80072       -4.79895        2.92017
H          2.74524       -6.24097        1.12416
H          3.41403       -5.22919       -1.05262
H          3.12103       -2.80019       -1.43708
C          4.31376        0.23767       -1.22079
C          4.60788        0.00892        1.17028
C          6.44948        0.73895       -0.21342
C          5.93019        0.42324        1.04404
C          5.64279        0.64250       -1.34546
H          3.65559        0.16133       -2.09210
H          6.04748        0.88779       -2.33036
H          7.48889        1.06266       -0.30850
H          6.56281        0.49983        1.93174
H          4.19607       -0.23980        2.15129
