94
Cat804.ts34.5.log	Energy: -2926714.2113800
C         -2.27307        3.02988       -1.66124
H         -2.31209        3.21787       -2.73710
H         -3.25744        2.95636       -1.18956
C         -1.18919        3.61728       -0.92711
H         -0.39354        4.14821       -1.45631
H         -1.40128        4.05188        0.05700
H         -0.60199        2.46062       -0.02268
Ir        -0.90731        1.38591       -1.28227
C         -2.81154        0.68395        1.77009
O         -3.92356        0.32514       -0.67787
O         -2.25002       -1.36955        0.29955
C          1.82173       -0.75266       -2.05700
O          2.42097        1.62007       -1.06766
O          1.35886       -0.05552        0.59630
P          1.15364        0.52951       -0.93751
P         -2.40384        0.26991        0.01931
C         -0.93430        0.77931       -3.08220
O         -0.97708        0.37117       -4.16039
H         -2.96841        1.77418        1.78255
H         -3.76683        0.19939        2.02358
C         -1.73189        0.26570        2.72227
C         -1.79896       -0.98504        3.34687
H         -2.65148       -1.63885        3.14874
C         -0.63059        1.08806        2.97970
H         -0.57222        2.06484        2.49077
C         -0.79185       -1.38688        4.21972
H         -0.86017       -2.35705        4.71865
C          0.39534        0.69494        3.84518
C          1.59192        1.56893        4.08140
H          1.38358        2.61942        3.83287
H          1.92106        1.52733        5.13003
H          2.44340        1.23710        3.46325
C          0.29696       -0.55424        4.46724
H          1.08644       -0.87716        5.15114
C         -5.05408       -0.23269       -0.14904
C         -6.03400        0.60764        0.38209
H         -5.86264        1.68591        0.38276
C         -5.25678       -1.61423       -0.17424
H         -4.49341       -2.26422       -0.60225
C         -7.21175        0.07384        0.89542
H         -7.98384        0.72297        1.31130
C         -6.43216       -2.15194        0.34159
H         -6.60161       -3.22971        0.32668
C         -7.40369       -1.30719        0.87700
Cl        -8.86529       -1.97867        1.51995
C         -1.52815       -2.24035       -0.45044
C         -0.69272       -3.12815        0.22847
H         -0.65291       -3.07030        1.31711
C         -1.62827       -2.29495       -1.84199
H         -2.29441       -1.60984       -2.36818
C          0.06126       -4.05739       -0.47716
H          0.71958       -4.75260        0.04634
C         -0.86474       -3.21843       -2.55438
H         -0.91902       -3.25485       -3.64340
C         -0.01715       -4.08910       -1.87059
Cl         0.97307       -5.20433       -2.75182
H          1.08395       -1.56694       -2.00027
H          1.71203       -0.30053       -3.05613
C          3.21493       -1.26036       -1.82866
C          4.33174       -0.50604       -2.20067
H          4.19386        0.46719       -2.67557
C          3.41073       -2.50802       -1.22859
H          2.53799       -3.10411       -0.95465
C          5.61238       -0.99002       -1.94524
H          6.48351       -0.39766       -2.23629
C          4.68724       -3.00640       -0.96178
C          4.86988       -4.33487       -0.28886
H          3.94165       -4.92324       -0.30972
H          5.65930       -4.92624       -0.77689
H          5.16668       -4.20240        0.76444
C          5.79055       -2.22394       -1.32485
H          6.80060       -2.59286       -1.12588
C          2.30662        2.90597       -0.62944
C          2.52514        3.94269       -1.53602
H          2.76844        3.69750       -2.57108
C          1.98448        3.18998        0.69877
H          1.81503        2.37057        1.39768
C          2.41889        5.26580       -1.11853
H          2.58496        6.08595       -1.81873
C          1.86950        4.51207        1.11774
H          1.61567        4.74697        2.15296
C          2.08362        5.54541        0.20670
Cl         1.93339        7.19132        0.72557
C          2.45255       -0.62516        1.19247
C          3.74139       -0.09923        1.08696
H          3.92604        0.78325        0.47748
C          2.21754       -1.75312        1.97720
H          1.19516       -2.11300        2.07726
C          4.80121       -0.74711        1.71333
H          5.81769       -0.36698        1.60561
C          3.27352       -2.39530        2.61303
H          3.10037       -3.28639        3.21846
C          4.56572       -1.89655        2.46339
Cl         5.89878       -2.73140        3.19719
