96
Cat834.ts34.5.log	Energy: -1758462.8349788
C          1.27030        3.45767        0.03190
H          0.91975        4.11850        0.82970
H          2.36347        3.39913       -0.02958
C          0.51919        3.46528       -1.19881
H         -0.41301        4.03483       -1.26379
H          1.08016        3.46777       -2.14114
H          0.30139        1.94064       -1.59002
Ir         0.13169        1.62881        0.06431
C          3.45119        0.89101       -1.02285
C          2.66587       -0.56063        1.38986
C          1.63588       -1.40663       -1.17354
C         -1.81693       -1.25886        0.63208
C         -3.35634        1.11965       -0.09382
C         -1.84977       -0.23338       -2.16901
P         -1.70999        0.30342       -0.38947
P          1.94138        0.15534       -0.17411
C         -0.59201        1.94201        1.76570
O         -1.10600        2.12717        2.79233
H          3.50968        0.43164       -2.01931
H          3.20498        1.95157       -1.17241
C          4.76177        0.76369       -0.31018
C          5.12051        1.68559        0.68283
H          4.44831        2.51756        0.91184
C          5.64555       -0.28693       -0.58735
H          5.39562       -1.01326       -1.36295
C          6.31455        1.56357        1.38829
H          6.59898        2.27888        2.16208
C          6.84346       -0.42359        0.10895
H          7.53587       -1.23990       -0.10469
C          7.16227        0.50308        1.09339
F          8.30703        0.37597        1.76499
H          3.15358        0.28648        1.89290
H          3.46165       -1.27208        1.12159
C          1.63588       -1.17303        2.28821
C          1.28161       -2.52618        2.20277
H          1.79638       -3.17947        1.49563
C          0.96802       -0.37880        3.22943
H          1.23681        0.67454        3.32123
C          0.28262       -3.06341        3.01364
H          0.02303       -4.12091        2.92458
C         -0.03150       -0.90982        4.04064
H         -0.54072       -0.26091        4.75685
C         -0.38424       -2.25475        3.93168
H         -1.17587       -2.67074        4.55873
H          1.00999       -1.07506       -2.01347
H          0.99933       -2.02825       -0.52387
C          2.81761       -2.16194       -1.69394
C          3.50692       -3.10749       -0.92192
H          3.15896       -3.34330        0.08449
C          3.28642       -1.91362       -2.99353
H          2.74908       -1.20253       -3.62778
C          4.63382       -3.75958       -1.41741
H          5.15224       -4.49011       -0.79196
C          4.41446       -2.56105       -3.49255
H          4.75805       -2.34593       -4.50715
C          5.09879       -3.48407       -2.70253
H          5.98367       -3.99352       -3.09047
H         -1.46389       -2.08102       -0.00737
H         -1.05934       -1.10968        1.41274
C         -3.13860       -1.59289        1.25259
C         -3.50081       -1.01215        2.47633
H         -2.80056       -0.33745        2.97650
C         -4.04443       -2.46485        0.63822
H         -3.78144       -2.93916       -0.30882
C         -4.73284       -1.27899        3.06612
H         -5.02172       -0.82912        4.01773
C         -5.28064       -2.74380        1.21617
H         -5.99029       -3.42397        0.74165
C         -5.61171       -2.14276        2.42348
F         -6.79469       -2.40406        2.98108
H         -3.44295        1.20875        0.99875
H         -4.15596        0.43794       -0.42219
C         -3.44987        2.46915       -0.73773
C         -3.94086        2.63037       -2.03846
H         -4.32420        1.76512       -2.58461
C         -3.00110        3.60824       -0.05381
H         -2.63065        3.50486        0.96738
C         -3.96377        3.88371       -2.65026
H         -4.35305        3.98351       -3.66634
C         -3.02808        4.86188       -0.65916
H         -2.67879        5.73631       -0.10460
C         -3.50085        5.00386       -1.96429
H         -3.51942        5.98732       -2.43986
H         -0.81793       -0.41666       -2.49535
H         -2.18377        0.67250       -2.69889
C         -2.71294       -1.41870       -2.46515
C         -4.09359       -1.30058       -2.67187
H         -4.56129       -0.31447       -2.65049
C         -2.14550       -2.70030       -2.52222
H         -1.06620       -2.81453       -2.38647
C         -4.88308       -2.42340       -2.90963
H         -5.95776       -2.30461       -3.06592
C         -2.93147       -3.82595       -2.75953
H         -2.46551       -4.81334       -2.80018
C         -4.30664       -3.69220       -2.94945
H         -4.92520       -4.57298       -3.13590
