100
Cat822.ts34.5.log	Energy: -1947125.3889479
C         -0.67151       -3.53646       -1.38502
H         -0.40864       -4.50131       -0.94151
H         -1.72020       -3.47056       -1.69561
C          0.31223       -2.92179       -2.24808
H          1.30635       -3.36868       -2.34493
H         -0.03873       -2.50851       -3.20286
H          0.29828       -1.42671       -1.84467
Ir         0.16719       -1.91735       -0.23692
C         -2.10845        0.31945       -1.63859
C         -3.33821       -1.40068        0.43001
C         -1.69735        0.69412        1.28645
C          2.36754        0.03091        1.83207
C          3.41299       -0.74045       -0.73340
C          1.40423        1.29565       -0.63447
P          1.82797       -0.33403        0.08381
P         -1.76200       -0.57983       -0.03181
C          0.60301       -2.90050        1.31172
O          0.88145       -3.44065        2.29984
H         -1.20496        0.93304       -1.77869
H         -2.02493       -0.50731       -2.36258
C         -3.34455        1.11641       -1.92588
C         -4.57724        0.48598       -2.14538
H         -4.64080       -0.60274       -2.08970
C         -3.29161        2.51346       -2.03799
H         -2.33697        3.03008       -1.90813
C         -5.72591        1.21933       -2.42823
H         -6.68835        0.73153       -2.59304
C         -4.43124        3.26305       -2.32061
H         -4.39285        4.35054       -2.40672
C         -5.64001        2.60391       -2.50430
F         -6.73678        3.31339       -2.77272
C         -4.49696       -0.66494        0.73753
H         -4.48093        0.42578        0.69561
C         -3.38861       -2.78873        0.55950
H         -2.47813       -3.36351        0.37770
C         -5.66787       -1.30067        1.11312
H         -6.57069       -0.73515        1.35147
C         -4.56009       -3.44426        0.94092
H         -4.55499       -4.53040        1.03482
C         -5.71296       -2.70034        1.21076
O         -6.89325       -3.23172        1.58174
C         -6.99389       -4.62124        1.72130
H         -6.30708       -5.00713        2.49508
H         -8.02659       -4.83316        2.02602
H         -6.78725       -5.14566        0.77159
C         -1.07193        0.32805        2.49005
H         -0.64995       -0.67679        2.58019
C         -2.23700        1.97721        1.19525
H         -2.74655        2.29645        0.28697
C         -0.96410        1.21931        3.54529
H         -0.47620        0.93767        4.48053
C         -2.12795        2.89140        2.24515
H         -2.55416        3.88784        2.12516
C         -1.48210        2.51900        3.42838
O         -1.31792        3.32480        4.49441
C         -1.81464        4.63225        4.43495
H         -2.90986        4.64993        4.29516
H         -1.57189        5.10561        5.39464
H         -1.34472        5.21347        3.62152
H          1.54546        0.58735        2.30481
H          2.39070       -0.95868        2.31236
C          3.68480        0.72514        1.97029
C          4.86566       -0.02464        2.05617
H          4.80662       -1.11581        2.06129
C          3.79001        2.12151        1.95260
H          2.88785        2.73272        1.89127
C          6.11257        0.58864        2.11140
H          7.03434        0.00762        2.17122
C          5.03050        2.75292        2.00407
H          5.11926        3.84070        1.99057
C          6.17917        1.97574        2.07804
F          7.37022        2.57423        2.12382
C          4.34970        0.24016       -1.10252
H          4.11658        1.29804       -0.96177
C          3.75218       -2.08232       -0.90769
H          3.01916       -2.84381       -0.62158
C          5.57728       -0.11621       -1.63364
H          6.31245        0.63748       -1.92142
C          4.99068       -2.45655       -1.42933
H          5.22160       -3.51539       -1.54815
C          5.91174       -1.46951       -1.79794
O          7.12878       -1.72081       -2.31499
C          7.52578       -3.05145       -2.49514
H          6.86206       -3.58686       -3.19677
H          8.53859       -3.02346       -2.91647
H          7.55171       -3.60514       -1.54005
C          0.82329        2.32584        0.11661
H          0.72242        2.23648        1.19965
C          1.46300        1.45213       -2.02398
H          1.90060        0.65991       -2.63738
C          0.31360        3.46097       -0.49794
H         -0.15763        4.25192        0.08786
C          0.95045        2.58275       -2.65600
H          1.00488        2.65670       -3.74218
C          0.35711        3.59403       -1.88992
O         -0.21973        4.70064       -2.40302
C         -0.25603        4.85790       -3.79536
H         -0.81410        4.03949       -4.28357
H         -0.77237        5.80602       -3.99121
H          0.75785        4.90836       -4.22916
