80
Cat816.ts34.5.log	Energy: -1376137.3934705
C         -1.54709       -3.11141        0.01721
H         -1.27445       -3.93862        0.67848
H         -2.60505       -2.83169        0.09503
C         -0.94205       -3.09203       -1.29167
H         -0.18738       -3.84476       -1.53677
H         -1.58353       -2.86328       -2.15280
H         -0.45813       -1.62790       -1.50343
Ir        -0.04642       -1.56833        0.13591
C         -2.87090        0.08163       -1.13497
C         -2.99159       -0.35483        1.74270
C         -1.38228        1.85394        0.66042
C          2.92101        0.07388        1.05794
C          3.21279       -2.21170       -0.78376
C          2.26061        0.46925       -1.82227
P          2.08532       -0.75442       -0.41339
P         -1.75685        0.04807        0.37370
C          0.68616       -2.13152        1.77341
O          1.14712       -2.45816        2.78657
H         -2.24981        0.50754       -1.93761
H         -3.00418       -0.98175       -1.38756
C         -4.20123        0.75927       -1.04778
C         -5.35832        0.02066       -0.76507
H         -5.28828       -1.06537       -0.66036
C         -4.33248        2.14620       -1.20664
H         -3.45418        2.74738       -1.45187
C         -6.59636        0.63738       -0.60865
H         -7.49801        0.06457       -0.38450
C         -5.56211        2.78091       -1.05479
H         -5.66793        3.86057       -1.17528
C         -6.68136        2.01684       -0.74737
F         -7.86101        2.61796       -0.59689
H         -3.66472       -1.07107        1.23849
C         -2.34737       -1.08668        2.91478
H         -3.11506       -1.33730        3.66459
H         -1.85998       -2.01468        2.59277
H         -1.58209       -0.47290        3.41407
C         -3.84536        0.81133        2.23669
H         -4.33602        1.36558        1.42671
H         -4.63810        0.42889        2.89968
H         -3.25150        1.52419        2.82857
H         -2.34780        2.36877        0.79571
C         -0.55347        1.99996        1.93082
H         -0.25943        3.05076        2.08534
H         -1.09492        1.66961        2.82779
H          0.36034        1.39038        1.86040
C         -0.65767        2.46727       -0.52726
H         -1.25053        2.44615       -1.45300
H         -0.40469        3.51993       -0.32088
H          0.27670        1.92557       -0.72713
H          2.07703        0.36672        1.69627
H          3.43713       -0.73297        1.59875
C          3.82059        1.25325        0.84382
C          5.21699        1.14309        0.85820
H          5.68044        0.17383        1.05050
C          3.26975        2.52576        0.63109
H          2.18489        2.65246        0.65801
C          6.03721        2.24531        0.63123
H          7.12527        2.15984        0.64251
C          4.07223        3.63840        0.39706
H          3.64373        4.62804        0.22882
C          5.45255        3.48190        0.39097
F          6.22946        4.54049        0.16589
H          2.88587       -2.90007        0.01447
C          2.82961       -2.85316       -2.11301
H          3.28429       -3.85299       -2.19705
H          1.73977       -2.96757       -2.19890
H          3.18255       -2.26099       -2.97079
C          4.72005       -2.03231       -0.65206
H          5.00964       -1.71629        0.35903
H          5.21683       -2.99908       -0.83601
H          5.13359       -1.30960       -1.36741
H          2.00413        1.41766       -1.32167
C          3.65577        0.64361       -2.41426
H          3.64619        1.48829       -3.12187
H          4.41557        0.86229       -1.65335
H          3.97267       -0.24562       -2.97790
C          1.22567        0.23591       -2.91627
H          0.21296        0.16267       -2.49610
H          1.24992        1.06843       -3.63758
H          1.42248       -0.69272       -3.47267
