94
Cat802.ts34.5.log	Energy: -2022400.4419999
C         -2.24953        3.13925       -1.32318
H         -2.34242        3.40545       -2.37907
H         -3.21018        3.03659       -0.80930
C         -1.12858        3.67470       -0.60233
H         -0.35702        4.24065       -1.13113
H         -1.29228        4.04145        0.41786
H         -0.51962        2.44786        0.20377
Ir        -0.87162        1.47759       -1.12463
C         -2.73547        0.51815        1.88743
O         -3.84146        0.28033       -0.57502
O         -2.08699       -1.41152        0.28833
C          1.76125       -0.75116       -2.00175
O          2.46975        1.56506       -0.94140
O          1.32584       -0.10330        0.67101
P          1.15739        0.53132       -0.84399
P         -2.31751        0.23349        0.11531
C         -0.91249        1.04262       -2.97430
O         -0.95908        0.73258       -4.08495
H         -2.92227        1.60122        1.96434
H         -3.67998       -0.00420        2.10259
C         -1.65782        0.07495        2.83027
C         -1.72605       -1.19110        3.42225
H         -2.57096       -1.84537        3.19470
C         -0.56380        0.89594        3.12056
H         -0.50172        1.88247        2.65228
C         -0.73180       -1.60628        4.30372
H         -0.80193       -2.58818        4.77872
C          0.45230        0.48696        3.98963
C          1.64654        1.35693        4.25099
H          1.43921        2.41139        4.01861
H          1.96907        1.29693        5.30084
H          2.50125        1.03585        3.63147
C          0.34831       -0.77399        4.58676
H          1.12911       -1.10861        5.27500
C         -4.95727       -0.32813       -0.06578
C         -5.96020        0.46793        0.49066
H         -5.81677        1.54961        0.52603
C         -5.12097       -1.71358       -0.13639
H         -4.34107       -2.32837       -0.58619
C         -7.12422       -0.11438        0.98385
H         -7.92258        0.48790        1.42091
C         -6.28246       -2.30017        0.35931
H         -6.43523       -3.37993        0.31440
C         -7.26928       -1.49503        0.91524
F         -8.38008       -2.05781        1.38902
C         -1.52752       -2.21806       -0.65346
C         -0.69987       -3.25015       -0.20654
H         -0.52828       -3.35502        0.86523
C         -1.78646       -2.06878       -2.01895
H         -2.44930       -1.27475       -2.36465
C         -0.11861       -4.12515       -1.11881
H          0.52525       -4.94379       -0.79227
C         -1.19105       -2.93289       -2.93635
H         -1.36675       -2.82261       -4.00765
C         -0.36333       -3.94988       -2.47733
F          0.20421       -4.77861       -3.35209
H          0.99794       -1.54213       -1.95122
H          1.65267       -0.27470       -2.98963
C          3.14138       -1.30523       -1.80298
C          4.27243       -0.58030       -2.18821
H          4.15392        0.39927       -2.65517
C          3.31233       -2.55971       -1.20735
H          2.42642       -3.12823       -0.91490
C          5.54373       -1.09987       -1.95504
H          6.42581       -0.53006       -2.25780
C          4.57889       -3.08902       -0.95468
C          4.74415       -4.41531       -0.27158
H          5.38303       -5.09331       -0.85866
H          5.21814       -4.29102        0.71507
H          3.77505       -4.90961       -0.11579
C          5.69762       -2.33774       -1.33756
H          6.70050       -2.73224       -1.15115
C          2.39723        2.84324       -0.46219
C          2.58819        3.90221       -1.34885
H          2.77447        3.68277       -2.40124
C          2.14104        3.09136        0.88754
H          1.98541        2.25391        1.56819
C          2.52866        5.21453       -0.88783
H          2.67521        6.06180       -1.56004
C          2.07274        4.40265        1.35118
H          1.87399        4.62439        2.40148
C          2.26681        5.44906        0.45765
F          2.20228        6.70442        0.89977
C          2.38140       -0.75912        1.25021
C          3.69678       -0.29619        1.18173
H          3.93305        0.60221        0.61404
C          2.07486       -1.90856        1.97629
H          1.03112       -2.21152        2.05144
C          4.71298       -1.02754        1.78989
H          5.75407       -0.70949        1.71876
C          3.08789       -2.63587        2.59210
H          2.87432       -3.54520        3.15661
C          4.39873       -2.19241        2.47656
F          5.38192       -2.91294        3.02574
