108
Cat835.ts34.5.log	Energy: -1857061.5869884
C          0.27725        0.48023       -3.31034
H          0.14156        1.42446       -3.84574
H          1.28546        0.06425       -3.42995
C         -0.83201       -0.44795       -3.32109
H         -1.78639       -0.13366       -3.75394
H         -0.61868       -1.50396       -3.53240
H         -0.87684       -0.97921       -1.85803
Ir        -0.55688        0.58482       -1.33246
C          2.16384       -1.70505       -0.88838
C          2.79185        1.17285       -1.03538
C          1.61781        0.02025        1.50520
C         -2.51801        1.42682        1.59700
C         -3.88266        0.22202       -0.73066
C         -2.30002       -1.28172        1.28175
P         -2.26153        0.22988        0.19104
P          1.49678       -0.02104       -0.37198
C         -0.75193        2.46407       -1.46376
O         -0.78510        3.60421       -1.65834
H          1.79887       -2.41507       -0.13311
H          1.60489       -1.91893       -1.81232
C          3.62927       -1.89810       -1.13441
C          4.16879       -1.63977       -2.40291
H          3.50784       -1.32288       -3.21512
C          4.49838       -2.34325       -0.13020
H          4.10730       -2.57283        0.86110
C          5.52989       -1.78695       -2.66100
H          5.95198       -1.58459       -3.64686
C          5.86010       -2.49877       -0.37012
H          6.53684       -2.84024        0.41506
C          6.36298       -2.21044       -1.63288
F          7.66742       -2.35434       -1.86702
H          3.24786        0.65049       -1.88761
H          2.19100        1.98957       -1.45455
C          3.86325        1.70225       -0.13513
C          5.13696        1.12269       -0.13148
H          5.33617        0.27837       -0.79272
C          3.60773        2.81225        0.69833
C          2.29158        3.53373        0.64805
H          1.42785        2.85427        0.61333
H          2.21461        4.15527       -0.26008
H          2.17286        4.20018        1.51399
C          6.14417        1.59527        0.70434
H          7.12802        1.12063        0.69126
C          4.62676        3.26618        1.54375
H          4.42857        4.11927        2.19871
C          5.88427        2.66522        1.55781
H          6.66111        3.04119        2.22786
H          1.80606        1.07828        1.73822
H          0.58734       -0.18374        1.82631
C          2.59443       -0.84684        2.24435
C          3.85786       -0.34051        2.57277
H          4.10309        0.68619        2.30143
C          2.25950       -2.15867        2.64838
C          0.88594       -2.73011        2.44590
H          0.49756       -2.58654        1.42831
H          0.16074       -2.25952        3.13145
H          0.87086       -3.80904        2.65102
C          4.80465       -1.11620        3.23327
H          5.78487       -0.69201        3.46228
C          3.22586       -2.92792        3.30871
H          2.96871       -3.94655        3.61199
C          4.49358       -2.42525        3.59255
H          5.22766       -3.05114        4.10555
H         -3.49107        1.19426        2.05745
H         -1.74802        1.14802        2.33303
C         -2.39405        2.87836        1.26409
C         -1.22679        3.57630        1.59360
H         -0.42042        3.05092        2.11018
C         -3.41851        3.57610        0.61118
H         -4.35151        3.06714        0.35762
C         -1.06978        4.91988        1.27233
H         -0.15806        5.46653        1.51807
C         -3.27723        4.91904        0.27652
H         -4.06743        5.46693       -0.23933
C         -2.09740        5.57340        0.60624
F         -1.95396        6.85802        0.28667
H         -4.03407        1.28659       -0.97277
H         -3.62118       -0.25052       -1.68474
C         -5.11460       -0.39342       -0.13797
C         -5.80144        0.24550        0.90352
H         -5.43597        1.20543        1.27587
C         -5.62964       -1.60512       -0.65179
C         -4.98003       -2.31488       -1.80436
H         -3.92576       -2.55397       -1.60082
H         -5.00825       -1.70120       -2.71989
H         -5.49729       -3.25900       -2.02038
C         -6.95841       -0.29583        1.45899
H         -7.47193        0.22700        2.26909
C         -6.79519       -2.13251       -0.08484
H         -7.19250       -3.07008       -0.48299
C         -7.45700       -1.49706        0.96276
H         -8.36436       -1.93626        1.38384
H         -1.33920       -1.23179        1.81883
H         -3.08301       -1.09174        2.02742
C         -2.48211       -2.64516        0.68021
C         -1.60135       -3.11033       -0.30404
H         -0.78968       -2.45509       -0.62626
C         -3.51048       -3.49847        1.13686
C         -4.42422       -3.10959        2.26295
H         -4.95040       -2.16424        2.06673
H         -3.86443       -2.98785        3.20506
H         -5.18765       -3.88144        2.42809
C         -1.74973       -4.36819       -0.88218
H         -1.05018       -4.70058       -1.65288
C         -3.64960       -4.75653        0.53951
H         -4.45296       -5.41335        0.88420
C         -2.79157       -5.19259       -0.46704
H         -2.92931       -6.18036       -0.91324
