100
Cat838.ts34.5.log	Energy: -1947121.5497822
C         -1.04097       -3.31493       -1.59157
H         -0.67904       -4.28974       -1.25205
H         -2.13076       -3.27670       -1.70546
C         -0.23033       -2.61740       -2.56193
H          0.73853       -3.03352       -2.85462
H         -0.74423       -2.13635       -3.40377
H         -0.13414       -1.13432       -2.05699
Ir        -0.05262       -1.75466       -0.49092
C         -3.20917       -0.49175       -1.42133
C         -3.00858       -1.11270        1.35683
C         -1.65561        1.26955        0.43972
C          1.89830        0.13498        1.66651
C          3.41621       -1.12810       -0.49038
C          1.87336        1.19993       -1.08445
P          1.77563       -0.36009       -0.12951
P         -1.96380       -0.47508       -0.02591
C          0.47372       -2.82540        0.96344
O          0.80610       -3.44554        1.88564
H         -2.69651       -0.01652       -2.26616
H         -3.29029       -1.56719       -1.64101
C         -4.56630        0.08711       -1.18887
C         -5.59929       -0.71076       -0.68152
H         -5.41098       -1.76823       -0.47957
C         -4.83603        1.43872       -1.43883
H         -4.04094        2.07164       -1.83485
C         -6.85779       -0.17956       -0.41020
H         -7.66430       -0.79535       -0.00791
C         -6.08940        1.98473       -1.18096
H         -6.30745        3.03711       -1.37286
C         -7.08493        1.16687       -0.66050
F         -8.28525        1.68911       -0.39083
C         -2.84210       -2.45270        1.71551
H         -2.05976       -3.01936        1.20610
C         -4.02360       -0.37056        2.00882
O         -4.19120        0.90590        1.63377
C         -5.13058        1.71464        2.28098
H         -6.15613        1.32695        2.16029
H         -5.06734        2.69919        1.80167
H         -4.90392        1.82001        3.35654
C         -3.63346       -3.06360        2.68661
H         -3.47456       -4.11326        2.94073
C         -4.80376       -0.97460        3.00227
H         -5.57847       -0.40188        3.51198
C         -4.60999       -2.31407        3.33273
H         -5.23428       -2.76855        4.10623
C         -1.42894        1.58028        1.78478
H         -1.50920        0.78138        2.52713
C         -1.50764        2.29734       -0.51033
O         -1.62613        1.94631       -1.80987
C         -1.36605        2.89377       -2.81026
H         -2.10168        3.71774       -2.79508
H         -1.45057        2.36365       -3.76745
H         -0.34925        3.30629       -2.71756
C         -1.12158        2.87430        2.19779
H         -0.95586        3.08524        3.25648
C         -1.24575        3.60842       -0.09819
H         -1.15780        4.40618       -0.83533
C         -1.05444        3.89480        1.25123
H         -0.83977        4.92146        1.55757
H          1.07120        0.84266        1.82828
H          1.59898       -0.79356        2.17459
C          3.19070        0.63177        2.23366
C          4.22631       -0.27189        2.50806
H          4.07353       -1.33653        2.31649
C          3.40444        1.98507        2.51944
H          2.60181        2.70644        2.35180
C          5.45058        0.16099        3.00836
H          6.26257       -0.53851        3.21500
C          4.62064        2.43630        3.02604
H          4.79238        3.49052        3.25122
C          5.63551        1.51592        3.25249
F          6.81157        1.94177        3.72075
C          3.47252       -2.50646       -0.69251
H          2.52751       -3.05719       -0.65269
C          4.61620       -0.38600       -0.57653
O          4.52662        0.94027       -0.39290
C          5.67295        1.73955       -0.43582
H          6.40638        1.44156        0.33241
H          5.33818        2.76362       -0.22950
H          6.15266        1.71026       -1.43003
C          4.67621       -3.16260       -0.94946
H          4.69046       -4.24467       -1.09436
C          5.82469       -1.03829       -0.84454
H          6.75297       -0.47010       -0.90605
C          5.84977       -2.42080       -1.02384
H          6.80352       -2.91474       -1.22682
C          1.74698        2.45828       -0.50755
H          1.48237        2.54403        0.54529
C          2.16383        1.11852       -2.46318
O          2.23199       -0.12444       -2.97335
C          2.65691       -0.31861       -4.29084
H          1.96010        0.13372       -5.01841
H          2.68450       -1.40366       -4.45102
H          3.66726        0.09389       -4.45676
C          1.96582        3.62282       -1.24664
H          1.87119        4.59741       -0.76348
C          2.38801        2.27775       -3.20972
H          2.63702        2.21412       -4.26932
C          2.30395        3.52738       -2.59127
H          2.49418        4.42909       -3.17875
