80
Cat836.ts34.5.log	Energy: -1376151.4924474
C         -0.07313       -0.21456       -3.23963
H         -0.78535        0.38321       -3.81526
H          0.97057        0.05629       -3.44016
C         -0.38304       -1.61236       -3.05962
H         -1.34168       -1.99894       -3.41694
H          0.42815       -2.33888       -3.18791
H         -0.11925       -1.91834       -1.51795
Ir        -0.72305       -0.37578       -1.19091
C          2.76163       -0.90758       -1.08732
C          1.98187        1.86699       -0.96348
C          1.77257        0.18651        1.41348
C         -2.05039       -0.30550        2.18030
C         -3.55533       -1.80253        0.27553
C         -1.02271       -2.83427        1.26903
P         -1.81540       -1.29866        0.61997
P          1.41242        0.20081       -0.40764
C         -2.03775        0.96452       -1.39147
O         -2.84664        1.77878       -1.54791
H          2.41334       -1.92606       -0.85746
H          2.69830       -0.79522       -2.18183
C          4.15712       -0.70048       -0.59455
C          4.99442        0.27890       -1.14718
H          4.64719        0.86291       -2.00285
C          4.65108       -1.45579        0.47829
H          4.02802       -2.24306        0.91096
C          6.26184        0.52653       -0.62709
H          6.91629        1.28955       -1.05247
C          5.91546       -1.22284        1.01177
H          6.30156       -1.80685        1.84917
C          6.70412       -0.22295        0.45635
F          7.91472        0.01083        0.96168
H          3.00648        2.05785       -0.60462
H          2.03148        1.79750       -2.06394
C          1.04725        3.00278       -0.57226
H          1.01831        3.09555        0.52763
H          0.02331        2.73798       -0.88088
C          1.45325        4.33639       -1.17887
H          2.46599        4.63519       -0.86328
H          1.45019        4.28685       -2.27947
H          0.76041        5.13889       -0.88260
H          0.82024        0.42499        1.91216
H          1.97326       -0.87107        1.66169
C          2.87668        1.08139        1.96718
H          2.59576        2.13717        1.82025
H          3.81025        0.93445        1.40419
C          3.13302        0.82479        3.44407
H          2.21971        0.97047        4.04368
H          3.47804       -0.20847        3.61082
H          3.90546        1.50018        3.84193
H         -2.70337       -0.87657        2.85838
H         -1.05978       -0.23931        2.65575
C         -2.61144        1.05794        1.92095
C         -1.76381        2.13171        1.62467
H         -0.68467        1.97581        1.62121
C         -3.99289        1.28297        1.90518
H         -4.67631        0.46359        2.14321
C         -2.26848        3.38862        1.31300
H         -1.61090        4.22500        1.06987
C         -4.51744        2.53376        1.59052
H         -5.59320        2.71593        1.57074
C         -3.64481        3.57154        1.29120
F         -4.13878        4.77070        0.98577
H         -4.02390       -2.19049        1.19723
H         -4.07668       -0.86545        0.01646
C         -3.68368       -2.79791       -0.86786
H         -3.18513       -3.74507       -0.59602
H         -3.12814       -2.39758       -1.73246
C         -5.12900       -3.07312       -1.25134
H         -5.70131       -3.48562       -0.40466
H         -5.63455       -2.14859       -1.57258
H         -5.19489       -3.79438       -2.08019
H         -0.87440       -3.47815        0.38608
H         -0.00895       -2.52684        1.57905
C         -1.72328       -3.59983        2.38264
H         -2.73502       -3.89056        2.05311
H         -1.86555       -2.94614        3.25932
C         -0.95372       -4.84363        2.80296
H         -0.82532       -5.53701        1.95655
H          0.05175       -4.58472        3.17165
H         -1.47329       -5.38872        3.60551
