84
Cat824.ts34.5.log	Energy: -2813144.1834954
C         -0.94304       -2.91945       -2.31072
H         -0.68156       -3.95296       -2.06611
H         -2.01093       -2.78507       -2.52088
C          0.00296       -2.17678       -3.10777
H          0.97145       -2.62232       -3.35310
H         -0.38836       -1.56414       -3.92883
H          0.12034       -0.76062       -2.40541
Ir         0.00521       -1.57027       -0.92847
C         -2.97191        0.07451       -1.96848
C         -3.14280       -1.15569        0.61892
C         -1.70649        1.28861        0.36058
C          1.93803       -0.30963        1.75494
C          3.38445       -0.65742       -0.73550
C          1.65208        1.55981       -0.50902
P          1.71203       -0.22928       -0.10765
P         -1.91722       -0.32943       -0.47091
C          0.43461       -2.90668        0.32882
O          0.71819       -3.69796        1.12668
H         -2.44361        0.87517       -2.50753
H         -2.88728       -0.82322       -2.59906
C         -4.40937        0.40034       -1.71536
C         -5.35833       -0.63004       -1.66543
H         -5.04286       -1.65887       -1.85693
C         -4.84122        1.70661       -1.45269
H         -4.12887        2.53277       -1.48667
C         -6.68952       -0.37803       -1.35245
H         -7.42824       -1.17983       -1.30494
C         -6.16993        1.97780       -1.13528
H         -6.51233        2.99352       -0.92946
C         -7.07862        0.92832       -1.08374
F         -8.34985        1.18106       -0.77584
C         -3.13079       -2.55018        0.71372
H         -2.33927       -3.10754        0.20673
C         -4.14828       -0.44252        1.28728
H         -4.18540        0.64673        1.22091
C         -4.10353       -3.22734        1.44510
H         -4.09320       -4.31590        1.51853
C         -5.11871       -1.10385        2.03056
H         -5.90259       -0.54843        2.54759
C         -5.09382       -2.49722        2.09913
Cl        -6.30741       -3.32746        3.01197
C         -1.63907        2.49866       -0.33952
H         -1.77136        2.52135       -1.42219
C         -1.47445        1.30894        1.74386
H         -1.50793        0.37495        2.31123
C         -1.37976        3.69879        0.31553
H         -1.31625        4.63566       -0.24004
C         -1.20625        2.49918        2.41189
H         -1.02918        2.50890        3.48884
C         -1.16282        3.69172        1.69080
Cl        -0.77869        5.17245        2.50391
H          1.33171        0.50166        2.18387
H          1.44172       -1.24722        2.03879
C          3.35326       -0.30581        2.24509
C          4.09879       -1.49248        2.18509
H          3.61515       -2.41065        1.84231
C          3.99260        0.85043        2.70323
H          3.43773        1.78746        2.78505
C          5.44337       -1.52215        2.53416
H          6.02965       -2.44069        2.47625
C          5.33872        0.83919        3.06363
H          5.84257        1.73841        3.42234
C          6.05160       -0.34752        2.96205
F          7.34169       -0.36351        3.29198
C          3.62341       -1.95304       -1.19996
H          2.78040       -2.64799       -1.26735
C          4.45170        0.24730       -0.66330
H          4.28467        1.26764       -0.31181
C          4.90638       -2.35633       -1.56122
H          5.09734       -3.36946       -1.91864
C          5.73709       -0.14146       -1.02016
H          6.57284        0.55671       -0.95438
C          5.95782       -1.44786       -1.45946
Cl         7.55931       -1.94160       -1.89047
C          1.79195        2.58487        0.42762
H          1.91372        2.35873        1.48584
C          1.46944        1.90679       -1.85529
H          1.35189        1.11712       -2.60192
C          1.74644        3.92392        0.04398
H          1.82045        4.71867        0.78758
C          1.42299        3.23590       -2.25551
H          1.27470        3.50198       -3.30334
C          1.55399        4.24123       -1.29594
Cl         1.42619        5.90048       -1.77251
