100
Cat839.ts34.5.log	Energy: -1947218.7935755
C          2.50840       -2.51522       -0.71034
H          2.87075       -2.80401       -1.70024
H          3.30639       -2.29785        0.00535
C          1.30755       -3.14208       -0.22830
H          0.72439       -3.79380       -0.88475
H          1.27469       -3.45396        0.82217
H          0.47036       -1.94569        0.40248
Ir         0.96825       -1.00618       -0.89452
C          1.35130        0.74808        2.25573
O          3.47337        0.65621        0.75457
O          1.47483        2.11492       -0.08844
C         -1.54670        1.16914       -2.09724
O         -2.35961       -1.24785       -1.34011
O         -1.57728        0.36950        0.54217
P         -1.12642       -0.19782       -0.95167
P          1.82019        0.57837        0.48189
C          1.34112       -0.68200       -2.73501
O          1.59579       -0.44246       -3.83598
H          2.12168        1.35109        2.75988
H          0.40801        1.31066        2.26722
C          1.16546       -0.60333        2.87417
C         -0.11500       -1.05963        3.20410
H         -0.97318       -0.39953        3.06185
C          2.25063       -1.47232        3.04648
H          3.25498       -1.13265        2.78253
C         -0.31606       -2.34750        3.69212
H         -1.31103       -2.70845        3.95615
C          2.06583       -2.76701        3.52559
H          2.90257       -3.45595        3.65413
C          0.77892       -3.18887        3.83591
F          0.58680       -4.43808        4.26958
C          4.38784        0.40677       -0.23478
C          4.20517        0.87460       -1.53391
H          3.31446        1.45855       -1.77382
C          5.52692       -0.32426        0.10590
H          5.64898       -0.67395        1.13275
C          5.14734        0.58935       -2.52989
C          4.91291        1.06819       -3.93274
H          3.96565        0.66739       -4.32599
H          4.83997        2.16677       -3.97002
H          5.72460        0.75910       -4.60572
C          6.47311       -0.59328       -0.87657
H          7.36798       -1.16599       -0.62123
C          6.28286       -0.14953       -2.18592
H          7.02774       -0.37892       -2.95200
C          1.59417        3.27123        0.63599
C          2.83656        3.73836        1.05987
H          3.73013        3.15733        0.82512
C          0.42990        3.99046        0.91248
H         -0.52748        3.59729        0.56634
C          2.93298        4.93598        1.77930
C          4.27713        5.43889        2.21969
H          4.88436        5.74817        1.35365
H          4.18457        6.30408        2.89060
H          4.84368        4.65565        2.74619
C          0.52258        5.18221        1.62363
H         -0.38324        5.75182        1.84522
C          1.76257        5.65010        2.05771
H          1.82462        6.58575        2.61901
H         -0.80015        1.94367       -1.86034
H         -1.28655        0.76999       -3.09117
C         -2.94661        1.69812       -2.04466
C         -4.00350        0.99184       -2.63143
H         -3.79535        0.07042       -3.17845
C         -3.23590        2.87610       -1.34704
H         -2.42226        3.44707       -0.89371
C         -5.31811        1.42465       -2.49226
H         -6.15185        0.87567       -2.93349
C         -4.54506        3.32017       -1.19244
H         -4.78175        4.22199       -0.62624
C         -5.57087        2.57677       -1.75915
F         -6.83543        2.97078       -1.58444
C         -2.23916       -2.59002       -1.06805
C         -2.30177       -3.05154        0.24508
H         -2.43581       -2.33230        1.05633
C         -2.05428       -3.47016       -2.13081
H         -1.99445       -3.07571       -3.14610
C         -2.18340       -4.41906        0.52011
C         -2.22695       -4.92436        1.93280
H         -2.89730       -4.31492        2.55624
H         -2.57633       -5.96583        1.97366
H         -1.22962       -4.89507        2.40066
C         -1.93986       -4.83114       -1.86236
H         -1.79618       -5.53415       -2.68630
C         -2.00317       -5.30128       -0.55166
H         -1.91315       -6.37262       -0.35470
C         -2.75911        0.86060        1.03631
C         -4.00686        0.32909        0.70464
H         -4.06998       -0.48620       -0.01449
C         -2.65785        1.90376        1.95710
H         -1.67396        2.29891        2.21472
C         -5.17210        0.87101        1.25282
C         -6.51897        0.34835        0.84604
H         -7.04265        1.08448        0.21522
H         -6.43287       -0.58412        0.27157
H         -7.15653        0.15713        1.72264
C         -3.81811        2.43175        2.51831
H         -3.74164        3.25075        3.23771
C         -5.06625        1.92877        2.16566
H         -5.97183        2.35768        2.60213
