104
Cat815.ts34.5.log	Energy: -1573349.4366584
C          0.15276       -1.01445       -3.43590
H         -0.40957       -0.39653       -4.14155
H          1.20147       -1.15315       -3.72691
C         -0.54041       -2.13671       -2.85370
H         -1.60358       -2.27765       -3.06891
H         -0.00217       -3.09004       -2.78199
H         -0.23928       -2.08065       -1.31338
Ir        -0.30177       -0.39138       -1.42404
C          3.08037        0.67350       -1.81103
C          2.62464       -0.19656        0.85689
C          2.76606       -2.13684       -1.26183
C         -1.36048       -0.31507        2.13202
C         -3.19771        0.74560        0.24490
C         -2.67216       -2.10884        0.36802
P         -1.81399       -0.47179        0.34349
P          1.99491       -0.50294       -0.84857
C         -0.96418        1.29479       -1.90399
O         -1.41169        2.33147       -2.17643
H          4.13371        0.41076       -1.62879
H          2.86253        0.48827       -2.87391
C          2.83035        2.10596       -1.45330
C          1.80560        2.82907       -2.07449
H          1.22722        2.35617       -2.86864
C          3.57260        2.74206       -0.44989
H          4.38737        2.20508        0.04217
C          1.50191        4.13249       -1.69285
H          0.68617        4.68529       -2.16115
C          3.29246        4.04962       -0.06157
H          3.86343        4.55000        0.72263
C          2.24954        4.72497       -0.68379
F          1.95544        5.96616       -0.29237
H          3.72553       -0.12303        0.83414
H          2.24723        0.79812        1.14032
C          2.17390       -1.22713        1.87760
H          1.10298       -1.43413        1.71956
H          2.69089       -2.18782        1.70486
C          2.40445       -0.77063        3.31174
H          1.95905        0.23053        3.44295
H          3.48839       -0.64431        3.48721
C          1.82662       -1.71120        4.35880
H          0.74386       -1.83115        4.17321
H          2.26365       -2.71808        4.23369
C          2.04414       -1.22553        5.78253
H          1.60725       -1.91407        6.52182
H          1.58697       -0.23441        5.93359
H          3.11760       -1.12861        6.01149
H          2.19658       -2.87106       -0.66646
H          2.49996       -2.34393       -2.31283
C          4.25983       -2.32845       -1.04663
H          4.82919       -1.62108       -1.67335
H          4.52426       -2.08763       -0.00220
C          4.72435       -3.74541       -1.35902
H          4.45909       -3.99489       -2.40267
H          4.16172       -4.45967       -0.73036
C          6.21756       -3.95768       -1.15214
H          6.77480       -3.24082       -1.78107
H          6.47735       -3.70256       -0.10930
C          6.67547       -5.37366       -1.46193
H          7.75764       -5.49524       -1.30332
H          6.46058       -5.64289       -2.50863
H          6.16100       -6.10887       -0.82233
H         -2.28120       -0.46716        2.71802
H         -0.71649       -1.18340        2.35250
C         -0.69079        0.95256        2.59756
C         -0.08412        1.86928        1.73140
H         -0.08886        1.68274        0.65407
C         -0.64582        1.21686        3.97393
H         -1.11918        0.51872        4.67021
C          0.55812        3.00680        2.21894
H          1.03227        3.72121        1.54468
C         -0.00131        2.34181        4.47875
H          0.04020        2.54721        5.55002
C          0.59878        3.22502        3.58815
F          1.21859        4.30578        4.06267
H         -3.78388        0.70360        1.17828
H         -2.72054        1.73915        0.22327
C         -4.09216        0.56578       -0.97421
H         -3.46338        0.34702       -1.85454
H         -4.73765       -0.31966       -0.83443
C         -4.95531        1.78512       -1.26331
H         -4.29296        2.65171       -1.43654
H         -5.55942        2.03498       -0.37164
C         -5.87323        1.60488       -2.46382
H         -5.26052        1.35140       -3.34690
H         -6.52826        0.73151       -2.29362
C         -6.72131        2.83014       -2.76405
H         -7.37133        2.67213       -3.63809
H         -6.09022        3.70885       -2.97273
H         -7.36873        3.08733       -1.91004
H         -3.02329       -2.25289       -0.66703
H         -1.87772       -2.85992        0.51592
C         -3.81243       -2.32145        1.35261
H         -3.43924       -2.26139        2.38908
H         -4.55594       -1.51202        1.25079
C         -4.51150       -3.66113        1.15884
H         -3.77061       -4.47645        1.24867
H         -4.89784       -3.72275        0.12515
C         -5.65067       -3.90169        2.13952
H         -5.25959       -3.83864        3.17062
H         -6.38403       -3.08075        2.04900
C         -6.34926       -5.23659        1.93795
H         -7.16674       -5.38106        2.66034
H         -5.64697       -6.07723        2.05788
H         -6.78147       -5.31241        0.92719
