106
Cat801.ts34.5.log	Energy: -1872033.6655922
C         -2.25658        3.12899       -1.35174
H         -2.34799        3.40080       -2.40638
H         -3.21790        3.02748       -0.83857
C         -1.13239        3.65387       -0.62817
H         -0.35654        4.22017       -1.15028
H         -1.29280        4.01192        0.39575
H         -0.52437        2.41976        0.16675
Ir        -0.88526        1.45985       -1.16647
C         -2.75223        0.55837        1.85226
O         -3.85582        0.26724       -0.60609
O         -2.10804       -1.40925        0.29828
C          1.76707       -0.71830       -2.10184
O          2.45249        1.57150       -0.98627
O          1.32698       -0.16415        0.58166
P          1.15133        0.52297       -0.90725
P         -2.33474        0.22874        0.08620
C         -0.94506        1.01240       -3.01131
O         -1.00086        0.69252       -4.11934
H         -2.91181        1.64697        1.90866
H         -3.71039        0.06382        2.07302
C         -1.68918        0.10396        2.80613
C         -1.79319       -1.15039        3.41754
H         -2.65398       -1.78538        3.19509
C         -0.57257        0.89847        3.08599
H         -0.48067        1.87450        2.60083
C         -0.81300       -1.57917        4.30807
H         -0.91070       -2.55220        4.79641
C          0.42946        0.47533        3.96499
C          1.64976        1.31215        4.21351
H          2.48839        0.96540        3.58584
H          1.47048        2.37153        3.98026
H          1.97974        1.24432        5.26062
C          0.28820       -0.77215        4.58231
H          1.05889       -1.11740        5.27671
C         -4.97023       -0.34191       -0.09275
C         -5.97383        0.44983        0.46524
H         -5.83384        1.53234        0.49968
C         -5.13107       -1.72688       -0.15261
H         -4.34903       -2.34283       -0.59767
C         -7.12919       -0.14403        0.96505
H         -7.90808        0.48726        1.40183
C         -6.29133       -2.30505        0.35504
H         -6.40637       -3.39153        0.30619
C         -7.31102       -1.53130        0.92186
C         -8.57157       -2.16568        1.43442
H         -9.31939       -2.26795        0.63003
H         -9.03081       -1.56386        2.23203
H         -8.38284       -3.17328        1.83286
C         -1.49779       -2.23217       -0.59715
C         -0.66289       -3.22870       -0.08958
H         -0.53371       -3.29919        0.99120
C         -1.70806       -2.13536       -1.97300
H         -2.38161       -1.37454       -2.36967
C         -0.02188       -4.10313       -0.95889
H          0.62798       -4.88123       -0.54810
C         -1.04112       -3.00882       -2.83217
H         -1.19507       -2.90653       -3.90961
C         -0.17900       -3.99831       -2.34881
C          0.58652       -4.89520       -3.27705
H          0.58299       -5.93846       -2.92654
H          1.64094       -4.57745       -3.34526
H          0.16914       -4.87518       -4.29352
H          0.99227       -1.49997       -2.10519
H          1.69971       -0.20084       -3.07229
C          3.13076       -1.29702       -1.87164
C          4.28662       -0.59544       -2.23504
H          4.19660        0.38269       -2.71179
C          3.26303       -2.54404       -1.25775
H          2.35826       -3.08487       -0.97033
C          5.53973       -1.13552       -1.96656
H          6.44023       -0.58510       -2.25041
C          4.51530       -3.09662       -0.97187
C          4.61174       -4.42056       -0.27188
H          5.65332       -4.76297       -0.19374
H          4.19944       -4.34682        0.74730
H          4.03779       -5.19752       -0.80104
C          5.65504       -2.37338       -1.33428
H          6.64503       -2.78608       -1.12119
C          2.37117        2.84117       -0.48488
C          2.55605        3.91734       -1.35069
H          2.74671        3.71782       -2.40657
C          2.10610        3.06809        0.86477
H          1.95463        2.21985        1.53305
C          2.47569        5.21710       -0.86060
H          2.61686        6.05586       -1.54811
C          2.02100        4.37546        1.33781
H          1.80642        4.54440        2.39709
C          2.20324        5.47331        0.49001
C          2.13702        6.87983        1.01081
H          3.14637        7.27977        1.20479
H          1.57608        6.93393        1.95477
H          1.65433        7.55486        0.28845
C          2.40089       -0.74101        1.20882
C          3.70332       -0.24599        1.12657
H          3.92475        0.61608        0.50036
C          2.12447       -1.84120        2.01701
H          1.09130       -2.17581        2.10282
C          4.72248       -0.89759        1.81408
H          5.74335       -0.51768        1.71998
C          3.15525       -2.47069        2.70763
H          2.92308       -3.33252        3.34009
C          4.47722       -2.02270        2.60932
C          5.60079       -2.74216        3.29657
H          6.12481       -3.41423        2.59536
H          5.23698       -3.35818        4.13159
H          6.35039       -2.04030        3.69162
