108
Cat820.ts34.5.log	Energy: -1668942.7019333
C         -1.17946       -2.36226       -2.23090
H         -0.77344       -3.37748       -2.21651
H         -2.27518       -2.33489       -2.18777
C         -0.51716       -1.40170       -3.07865
H          0.39933       -1.68899       -3.60231
H         -1.14373       -0.73854       -3.68976
H         -0.33161       -0.12648       -2.21184
Ir        -0.04601       -1.12323       -0.87316
C         -2.94500        0.79685       -1.27339
C         -3.33086       -1.49367        0.47206
C         -2.03140        0.92224        1.49781
C          2.15975        0.31529        1.45130
C          3.42271       -0.60099       -1.04586
C          1.73151        1.90792       -1.04527
P          1.84417        0.16109       -0.39941
P         -2.03409       -0.21045        0.02162
C          0.73416       -2.46931        0.17559
O          1.26911       -3.22500        0.87942
H         -2.30203        1.67154       -1.45607
H         -2.87815        0.17678       -2.18084
C         -4.36477        1.19068       -1.02082
C         -5.41813        0.41289       -1.52105
H         -5.19291       -0.45308       -2.14918
C         -4.68980        2.31191       -0.24408
H         -3.89257        2.95372        0.13783
C         -6.74601        0.70989       -1.22788
H         -7.56768        0.10194       -1.61071
C         -6.01181        2.62571        0.05888
H         -6.26924        3.49527        0.66633
C         -7.02658        1.81146       -0.42937
F         -8.29406        2.10284       -0.13886
H         -3.79019       -1.70975       -0.51187
C         -4.45752       -1.04044        1.40763
H         -4.90981       -0.09903        1.06918
H         -4.04266       -0.84647        2.41139
C         -5.53345       -2.11649        1.52551
H         -6.32910       -1.77600        2.20820
H         -6.01144       -2.25395        0.53839
C         -4.95064       -3.44232        1.99903
H         -5.73334       -4.21753        2.03764
H         -4.58049       -3.32330        3.03374
C         -3.79877       -3.88755        1.10579
H         -4.19135       -4.12687        0.10028
H         -3.34833       -4.81721        1.48989
C         -2.72886       -2.80903        0.97168
H         -2.24250       -2.64633        1.94971
H         -1.93175       -3.13455        0.28974
H         -3.08460        1.18312        1.70445
C         -1.25636        2.21142        1.23496
H         -1.66471        2.75152        0.36591
H         -0.22348        1.94127        0.96564
C         -1.23925        3.12618        2.45505
H         -0.65314        4.03417        2.23598
H         -2.26905        3.46536        2.66979
C         -0.68001        2.41063        3.67895
H         -0.71735        3.06941        4.56147
H          0.38811        2.18235        3.51042
C         -1.43122        1.11247        3.94870
H         -2.46944        1.34940        4.24421
H         -0.98106        0.57775        4.80063
C         -1.45660        0.20621        2.72196
H         -0.43605       -0.13341        2.48007
H         -2.03133       -0.70496        2.94289
H          1.67582        1.24953        1.76871
H          1.55110       -0.49973        1.86484
C          3.55035        0.21356        1.99928
C          4.13485       -1.04874        2.17841
H          3.55246       -1.94594        1.94941
C          4.29980        1.34197        2.35427
H          3.86170        2.33689        2.24989
C          5.43791       -1.18282        2.64882
H          5.89820       -2.16299        2.78581
C          5.60275        1.22659        2.83162
H          6.19159        2.10323        3.10737
C          6.16162       -0.03861        2.96108
F          7.41088       -0.15737        3.40923
H          3.58492       -1.40428       -0.30272
C          4.67975        0.27193       -1.06133
H          4.83040        0.77162       -0.09561
H          4.56231        1.06705       -1.81737
C          5.91172       -0.56041       -1.40840
H          6.80582        0.08395       -1.42693
H          6.07853       -1.29838       -0.60331
C          5.74371       -1.28413       -2.73853
H          6.62525       -1.91053       -2.95163
H          5.68986       -0.53702       -3.55166
C          4.47325       -2.12656       -2.74976
H          4.57527       -2.94836       -2.01800
H          4.33507       -2.60413       -3.73356
C          3.24021       -1.30260       -2.39400
H          3.05671       -0.55452       -3.18477
H          2.34191       -1.93685       -2.34555
H          0.68241        2.15114       -0.80407
C          1.83907        1.95562       -2.57128
H          1.18479        1.19068       -3.01795
H          2.86883        1.70989       -2.87956
C          1.47942        3.34008       -3.10021
H          1.58521        3.36384       -4.19689
H          0.41432        3.54311       -2.88557
C          2.33995        4.42082       -2.45650
H          2.04653        5.41811       -2.82212
H          3.39189        4.27497       -2.76248
C          2.24967        4.36488       -0.93622
H          1.21924        4.61676       -0.62492
H          2.90534        5.12529       -0.48174
C          2.60404        2.98108       -0.39528
H          3.67010        2.77314       -0.57906
H          2.46648        2.97490        0.69633
