88
Cat831.ts34.5.log	Energy: -2097564.9377228
C         -0.98185       -2.72345       -3.30533
H         -0.90361       -3.80668       -3.17784
H         -1.99115       -2.39086       -3.57374
C          0.13128       -2.05315       -3.93398
H          1.04937       -2.60934       -4.14218
H         -0.08393       -1.30007       -4.70042
H          0.31900       -0.72504       -3.05964
Ir         0.02628       -1.68182       -1.71143
C         -3.45400       -1.04555       -1.24110
O         -1.60723       -0.54014        0.80529
O         -1.80319        1.15291       -1.12304
C          1.59755       -0.44522        1.19528
O          3.18545       -1.02109       -1.04824
O          1.70948        1.07736       -1.12134
P          1.65988       -0.51276       -0.65943
P         -1.71330       -0.50306       -0.86289
C          0.38659       -3.26220       -0.71532
O          0.58878       -4.19518       -0.06590
H         -4.04597       -0.17890       -1.56779
H         -3.32414       -1.69728       -2.11887
C         -4.15954       -1.78252       -0.14368
C         -3.62429       -2.96215        0.39205
H         -2.67883       -3.35113        0.00499
C         -5.36711       -1.30229        0.37361
H         -5.79861       -0.38379       -0.03247
C         -4.26838       -3.63655        1.42434
H         -3.85687       -4.55244        1.85207
C         -6.02956       -1.97024        1.40131
H         -6.97380       -1.60404        1.80801
C         -5.46681       -3.13028        1.91758
F         -6.08935       -3.77477        2.90258
C         -2.10532        0.33705        1.72846
C         -3.12599       -0.07429        2.58660
H         -3.52984       -1.08216        2.49212
C         -1.54781        1.61118        1.85918
H         -0.74410        1.91885        1.19106
C         -3.61460        0.80217        3.55240
H         -4.41375        0.50442        4.23352
C         -2.03539        2.49012        2.82118
H         -1.61960        3.49311        2.93282
C         -3.06990        2.07744        3.65272
F         -3.54350        2.91771        4.57156
C         -2.87268        1.97396       -1.33987
C         -3.92262        2.11555       -0.42741
H         -3.92964        1.53635        0.49643
C         -2.86490        2.73130       -2.51449
H         -2.03589        2.60427       -3.21328
C         -4.95930        3.00675       -0.69475
H         -5.78630        3.13447        0.00599
C         -3.89458        3.62878       -2.77971
H         -3.90456        4.23126       -3.68973
C         -4.93376        3.75491       -1.86507
F         -5.92361        4.60946       -2.11584
H          1.37871        0.59342        1.48459
H          0.69139       -1.02640        1.42373
C          2.78213       -0.96626        1.95024
C          3.11153       -2.32816        1.91342
H          2.50136       -3.02172        1.33017
C          3.57507       -0.11002        2.72193
H          3.32469        0.95209        2.77514
C          4.21232       -2.81884        2.60922
H          4.47667       -3.87743        2.58490
C          4.67810       -0.58526        3.42714
H          5.29949        0.07658        4.03288
C          4.98654       -1.93761        3.35673
F          6.04066       -2.40205        4.02472
C          4.32634       -0.26075       -1.09252
C          5.33878       -0.48318       -0.15942
H          5.20458       -1.24970        0.60342
C          4.49133        0.69491       -2.09799
H          3.69453        0.84703       -2.82627
C          6.50730        0.27288       -0.21063
H          7.31206        0.11848        0.51021
C          5.65568        1.45528       -2.14816
H          5.80477        2.21524       -2.91703
C          6.64816        1.23969       -1.19895
F          7.76134        1.97040       -1.24277
C          1.83744        2.21553       -0.37518
C          2.98147        2.49370        0.37560
H          3.81020        1.78458        0.39382
C          0.78673        3.13427       -0.42415
H         -0.09173        2.88518       -1.02069
C          3.06286        3.68463        1.09413
H          3.94644        3.92597        1.68774
C          0.86880        4.32725        0.28801
H          0.05913        5.05896        0.26444
C          2.00623        4.58596        1.04485
F          2.08649        5.72269        1.73343
