110
Cat808.ts34.5.log	Energy: -1498171.9805181
C          2.52901       -2.58161       -1.80552
H          2.78349       -2.60356       -2.86887
H          3.41011       -2.62639       -1.15305
C          1.36024       -3.32743       -1.39487
H          0.72985       -3.79133       -2.15894
H          1.44501       -3.95774       -0.49922
H          0.60804       -2.37990       -0.41567
Ir         1.02736       -1.08901       -1.42014
C          2.87618       -1.16023        1.69580
C          3.97739        0.37989       -0.46487
C          1.80876        1.42966        1.11949
C         -1.60270        1.08011       -2.25222
C         -2.46646       -1.54850       -1.44776
C         -1.55936        0.28637        0.58331
P         -1.13520       -0.31945       -1.11211
P          2.33749       -0.10798        0.24604
C          1.20636       -0.19796       -3.07091
O          1.32207        0.39010       -4.06337
H          3.14738       -2.13725        1.26494
H          3.78481       -0.72938        2.14367
C          1.80896       -1.30425        2.73654
C          1.83852       -0.52181        3.89693
H          2.66762        0.17271        4.05702
C          0.73830       -2.19056        2.56012
H          0.70701       -2.80586        1.65785
C          0.83004       -0.63279        4.85123
H          0.87056       -0.02427        5.75802
C         -0.28735       -2.30844        3.50314
C         -1.44465       -3.23593        3.27172
H         -2.32825       -2.67818        2.91718
H         -1.20946       -3.99415        2.51203
H         -1.73986       -3.75350        4.19656
C         -0.22486       -1.52012        4.65808
H         -1.01185       -1.60345        5.41252
H          3.74038        0.89664       -1.40942
H          4.43954       -0.57290       -0.76828
C          4.92331        1.21600        0.38277
H          4.44402        2.18056        0.62044
H          5.11250        0.72561        1.35537
C          6.27498        1.50731       -0.27901
H          6.06664        1.96163       -1.26599
C          7.06125        2.51938        0.54658
H          6.49645        3.45497        0.68306
H          8.02023        2.77169        0.06811
H          7.28625        2.11700        1.54871
C          7.09450        0.24224       -0.50835
H          8.06147        0.47723       -0.97920
H          6.57821       -0.47639       -1.16192
H          7.30551       -0.26475        0.44860
H          2.60018        1.73320        1.82661
H          0.93802        1.15067        1.73069
C          1.47411        2.56859        0.16997
H          2.31218        2.72934       -0.53007
H          0.62480        2.26749       -0.46777
C          1.16339        3.90227        0.85665
H          2.06679        4.19282        1.42602
C          0.90167        4.98473       -0.18440
H          1.74634        5.08538       -0.88343
H          0.73401        5.96584        0.28640
H          0.00659        4.74716       -0.78377
C          0.00748        3.80764        1.84660
H         -0.17705        4.77894        2.33117
H          0.19718        3.07221        2.64246
H         -0.92600        3.51204        1.34017
H         -0.74797        1.77180       -2.22300
H         -1.60505        0.63304       -3.25833
C         -2.88067        1.79402       -1.95212
C         -4.10994        1.33432       -2.43794
H         -4.13789        0.47862       -3.11711
C         -2.87384        2.91669       -1.11449
H         -1.91498        3.29810       -0.75299
C         -5.29459        1.96020       -2.05443
H         -6.25031        1.59263       -2.43628
C         -4.05028        3.55142       -0.71175
C         -4.01458        4.71951        0.23023
H         -2.99000        5.09053        0.37394
H         -4.63229        5.55312       -0.13720
H         -4.40841        4.43568        1.22026
C         -5.26882        3.05088       -1.18917
H         -6.20460        3.53061       -0.88913
H         -2.40222       -1.78904       -2.52187
H         -3.43644       -1.05645       -1.27781
C         -2.33821       -2.81656       -0.61737
H         -1.41013       -3.33077       -0.91121
H         -2.21147       -2.56136        0.44990
C         -3.51639       -3.78499       -0.75064
H         -3.68481       -3.95509       -1.83093
C         -3.17460       -5.12691       -0.11294
H         -2.27086       -5.56764       -0.56194
H         -3.99655       -5.85042       -0.22817
H         -2.98665       -5.00901        0.96741
C         -4.80116       -3.21724       -0.15622
H         -5.64271       -3.91538       -0.28512
H         -5.09060       -2.26227       -0.62003
H         -4.68161       -3.03820        0.92596
H         -1.11308        1.29198        0.64296
H         -0.96449       -0.34080        1.26591
C         -3.02424        0.33411        1.00889
H         -3.66005        0.65638        0.17202
H         -3.36711       -0.68127        1.27559
C         -3.29107        1.27532        2.18557
H         -2.93722        2.27742        1.87841
C         -4.78724        1.37717        2.45343
H         -5.32885        1.71172        1.55467
H         -5.00352        2.08633        3.26803
H         -5.20120        0.39803        2.74803
C         -2.52718        0.87331        3.43998
H         -2.71918        1.57534        4.26652
H         -1.43993        0.84198        3.27729
H         -2.83334       -0.13064        3.77899
