88
Cat829.ts34.5.log	Energy: -1848591.0388688
C         -1.11450       -1.81092       -3.61474
H         -1.06339       -2.90106       -3.68439
H         -2.11925       -1.41249       -3.79705
C          0.00524       -1.06555       -4.13915
H          0.90331       -1.59735       -4.46515
H         -0.20332       -0.18233       -4.75342
H          0.24687        0.08108       -3.04557
Ir        -0.04929       -1.09517       -1.88502
C         -3.50106       -0.45449       -1.23146
O         -1.60644       -0.36874        0.82419
O         -1.77660        1.64120       -0.78930
C          1.61158       -0.44977        1.16118
O          3.13439       -0.61588       -1.18866
O          1.68391        1.48030       -0.82955
P          1.62930       -0.16617       -0.67434
P         -1.73748       -0.03298       -0.80609
C          0.28345       -2.83435       -1.19218
O          0.46996       -3.87336       -0.72301
H         -4.07842        0.47115       -1.36561
H         -3.41105       -0.92730       -2.22167
C         -4.19480       -1.37413       -0.27303
C         -3.67407       -2.64378        0.01322
H         -2.74907       -2.96953       -0.46959
C         -5.37495       -0.97804        0.36459
H         -5.79374        0.00942        0.15435
C         -4.30554       -3.48955        0.91929
H         -3.90414       -4.47708        1.15339
C         -6.02472       -1.81630        1.26816
H         -6.94723       -1.51560        1.76781
C         -5.47672       -3.06352        1.53736
F         -6.08771       -3.87160        2.40277
C         -2.03845        0.33949        1.91078
C         -3.03946       -0.19828        2.72051
H         -3.47733       -1.16130        2.45715
C         -1.43479        1.55451        2.24131
H         -0.64845        1.95712        1.60337
C         -3.45781        0.50593        3.84800
H         -4.24435        0.08540        4.47922
C         -1.86364        2.24955        3.36865
H         -1.39363        3.20444        3.61607
C         -2.88045        1.73394        4.17192
H         -3.21574        2.28265        5.05474
C         -2.81244        2.53021       -0.77859
C         -3.84863        2.48917        0.15880
H         -3.87030        1.71037        0.92177
C         -2.77719        3.54435       -1.73971
H         -1.95698        3.55046       -2.46036
C         -4.84468        3.46387        0.12124
H         -5.64960        3.42785        0.85930
C         -3.77327        4.51656       -1.76080
H         -3.73683        5.30786       -2.51337
C         -4.81356        4.47985       -0.83224
H         -5.59578        5.24161       -0.85091
H          1.42839        0.51963        1.64790
H          0.69581       -1.04357        1.30179
C          2.79928       -1.13227        1.76826
C          3.09176       -2.46835        1.46167
H          2.44935       -3.02366        0.77443
C          3.63329       -0.45778        2.66645
H          3.41269        0.57964        2.92828
C          4.19578       -3.10714        2.01816
H          4.43149       -4.14650        1.78306
C          4.74038       -1.08325        3.23478
H          5.39446       -0.56327        3.93683
C          5.01121       -2.40278        2.89738
F          6.06973       -3.00942        3.43298
C          4.29296        0.11631       -1.13647
C          5.32879       -0.30271       -0.30216
H          5.19497       -1.19721        0.30595
C          4.44515        1.24197       -1.94888
H          3.62513        1.54331       -2.60130
C          6.51255        0.43141       -0.26049
H          7.32113        0.10358        0.39717
C          5.63089        1.96990       -1.89352
H          5.74499        2.85727       -2.52050
C          6.66540        1.57336       -1.04614
H          7.59264        2.14900       -1.00489
C          1.88557        2.46239        0.09978
C          3.04727        2.53940        0.87000
H          3.83649        1.79641        0.74694
C          0.88600        3.42950        0.22511
H         -0.00599        3.33503       -0.39542
C          3.18968        3.58225        1.78463
H          4.09976        3.64096        2.38653
C          1.04402        4.46902        1.13814
H          0.25751        5.22144        1.23446
C          2.19273        4.54637        1.92631
H          2.31407        5.36038        2.64419
