84
Cat819.ts34.5.log	Energy: -1564905.7376421
C         -1.10023       -3.54136       -0.79552
H         -0.82980       -4.43209       -0.22155
H         -2.18207       -3.37774       -0.85543
C         -0.30068       -3.24437       -1.95804
H          0.58825       -3.84628       -2.16636
H         -0.81557       -2.93537       -2.87528
H         -0.03408       -1.66598       -1.87136
Ir         0.13666       -1.86170       -0.21383
C         -2.82941       -0.18996       -1.21130
O         -2.73057       -0.83051        1.32092
O         -1.08785        1.03580        0.62256
C          2.05872        0.57342        1.39371
O          3.26066       -0.62686       -0.67922
O          1.45624        1.09536       -1.12074
P          1.73500       -0.23944       -0.21510
P         -1.62126       -0.44511        0.16459
C          0.92179       -2.73260        1.27850
O          1.39375       -3.21488        2.21976
H         -2.21241        0.18685       -2.04195
H         -3.09437       -1.22800       -1.47908
C         -4.06643        0.64311       -1.03863
C         -5.06075        0.30139       -0.10943
H         -4.92106       -0.58116        0.51473
C         -4.26964        1.77923       -1.83153
H         -3.52500        2.04964       -2.58462
C         -6.19870        1.08611        0.04659
H         -6.97316        0.82950        0.77188
C         -5.40323        2.57602       -1.68793
H         -5.56196        3.46327       -2.30341
C         -6.35425        2.22064       -0.74144
F         -7.44192        2.97631       -0.59156
C         -2.31735       -1.36586        2.58463
H         -1.24086       -1.15314        2.71918
C         -2.52350       -2.86602        2.58333
H         -1.93030       -3.32658        1.78257
H         -3.58620       -3.10517        2.42143
H         -2.20899       -3.30115        3.54368
C         -3.11699       -0.66198        3.66113
H         -2.96352        0.42519        3.62091
H         -4.19231       -0.85858        3.53009
H         -2.81994       -1.01933        4.65829
C         -1.86360        2.21454        0.86455
H         -2.93491        1.95470        0.84758
C         -1.55303        3.21296       -0.23192
H         -1.78477        2.79290       -1.21912
H         -0.48225        3.46511       -0.21887
H         -2.14143        4.13341       -0.10232
C         -1.49897        2.73791        2.23939
H         -1.69654        1.98185        3.01145
H         -0.43055        3.00026        2.28319
H         -2.08414        3.63845        2.47834
H          1.07610        0.95857        1.70152
H          2.33013       -0.24329        2.08060
C          3.10209        1.64169        1.33917
C          4.45812        1.33652        1.50494
H          4.75318        0.30572        1.71320
C          2.74986        2.96720        1.05853
H          1.69727        3.21870        0.91320
C          5.43697        2.32077        1.40241
H          6.49609        2.09212        1.53408
C          3.71511        3.96508        0.95224
H          3.44817        5.00183        0.73908
C          5.05129        3.62620        1.12448
F          5.98342        4.57521        1.02470
C          3.65306       -1.92881       -1.12086
H          2.73136       -2.51464       -1.29769
C          4.45119       -2.59606       -0.01983
H          3.83929       -2.70820        0.88703
H          5.34280       -1.99847        0.22672
H          4.78085       -3.59855       -0.33155
C          4.42515       -1.77012       -2.41366
H          3.80077       -1.30128       -3.18833
H          5.31407       -1.13925       -2.25844
H          4.75654       -2.75054       -2.78714
C          1.99339        1.32973       -2.41999
H          3.05130        1.01657       -2.41413
C          1.92197        2.82437       -2.64998
H          2.47728        3.35615       -1.86469
H          0.87549        3.16625       -2.63086
H          2.35683        3.08561       -3.62615
C          1.24239        0.53288       -3.47065
H          1.33600       -0.54836       -3.29297
H          0.17117        0.78768       -3.45246
H          1.63724        0.75136       -4.47433
