100
Cat830.ts34.5.log	Energy: -1947198.2260427
C         -0.97296       -2.86796       -3.23084
H         -0.88974       -3.94666       -3.07146
H         -1.98387       -2.54860       -3.50954
C          0.13739       -2.21161       -3.88022
H          1.05728       -2.77028       -4.07349
H         -0.08188       -1.48325       -4.66916
H          0.31852       -0.85590       -3.04651
Ir         0.03208       -1.77455       -1.67114
C         -3.45031       -1.12882       -1.22323
O         -1.60749       -0.53497        0.79748
O         -1.80278        1.07100       -1.21658
C          1.58079       -0.42602        1.19578
O          3.18492       -1.06713       -1.01811
O          1.68391        1.01531       -1.17149
P          1.65526       -0.55612       -0.65551
P         -1.71104       -0.56384       -0.86886
C          0.40180       -3.31752       -0.62373
O          0.60984       -4.22758        0.05709
H         -4.04818       -0.27536       -1.57321
H         -3.32030       -1.80797       -2.07998
C         -4.14517       -1.83378       -0.09852
C         -3.59765       -2.98961        0.47544
H         -2.65036       -3.38319        0.09759
C         -5.35355       -1.34531        0.40887
H         -5.79260       -0.44344       -0.02528
C         -4.23085       -3.63282        1.53397
H         -3.80886       -4.52924        1.99170
C         -6.00512       -1.98241        1.46285
H         -6.94932       -1.60889        1.86294
C         -5.43042       -3.11914        2.01586
F         -6.04320       -3.73409        3.02704
C         -2.09084        0.38330        1.68929
C         -3.10619        0.01815        2.57097
H         -3.51902       -0.98960        2.52307
C         -1.53141        1.66022        1.75852
H         -0.73454        1.93925        1.06971
C         -3.58033        0.94816        3.49378
H         -4.38338        0.65472        4.17562
C         -2.01878        2.57616        2.68372
H         -1.58007        3.57759        2.71517
C         -3.05566        2.24380        3.56465
C         -3.55931        3.23515        4.57331
H         -4.55841        2.96285        4.94238
H         -3.61682        4.24836        4.14809
H         -2.88887        3.28747        5.44746
C         -2.86975        1.90119       -1.41425
C         -3.92189        2.03504       -0.50725
H         -3.93793        1.44727        0.41108
C         -2.85823        2.67753       -2.57639
H         -2.02874        2.55673       -3.27614
C         -4.94958        2.93845       -0.77518
H         -5.76621        3.03308       -0.05410
C         -3.88684        3.57928       -2.82242
H         -3.86119        4.18005       -3.73605
C         -4.95559        3.72837       -1.92813
C         -6.05586        4.71273       -2.20023
H         -6.87366        4.61316       -1.47286
H         -6.47978        4.57385       -3.20700
H         -5.68610        5.74970       -2.14614
H          1.35997        0.62170        1.44799
H          0.67316       -0.99949        1.43709
C          2.75924       -0.92082        1.97705
C          3.09281       -2.28213        1.98628
H          2.49031       -2.99522        1.41890
C          3.54274       -0.03863        2.72886
H          3.28983        1.02407        2.74314
C          4.18832       -2.74756        2.70742
H          4.45616       -3.80551        2.71788
C          4.64027       -0.48841        3.45885
H          5.25530        0.19412        4.04792
C          4.95302       -1.84114        3.43371
F          6.00324       -2.28136        4.12627
C          4.32203       -0.30021       -1.07942
C          5.32918       -0.48150       -0.13494
H          5.19826       -1.22394        0.65201
C          4.48648        0.62912       -2.10825
H          3.69263        0.75561       -2.84495
C          6.48443        0.29415       -0.20584
H          7.26486        0.14971        0.54636
C          5.64402        1.39787       -2.16039
H          5.75638        2.13449       -2.96077
C          6.66245        1.25219       -1.20954
C          7.91507        2.07587       -1.28931
H          8.45784        2.07733       -0.33336
H          7.69425        3.11978       -1.55827
H          8.60136        1.68134       -2.05714
C          1.81819        2.18124       -0.46862
C          2.94753        2.47447        0.29515
H          3.76986        1.76000        0.35549
C          0.78103        3.10982       -0.56707
H         -0.09134        2.85118       -1.16858
C          3.01592        3.68965        0.97438
H          3.90350        3.90775        1.57497
C          0.87024        4.31994        0.11322
H          0.04615        5.03466        0.03384
C          1.98534        4.63302        0.90139
C          2.08335        5.95047        1.61437
H          2.76745        5.89482        2.47319
H          1.10137        6.28433        1.98111
H          2.46364        6.73775        0.94203
