114
Cat806.ts34.5.log	Energy: -1781881.9286601
C         -0.71184        1.80365       -3.15993
H         -0.48729        1.40597       -4.15369
H         -1.73438        2.18953       -3.07786
C          0.34522        2.54840       -2.50811
H          1.32980        2.56606       -2.98457
H          0.10440        3.51870       -2.05604
H          0.28756        2.07439       -1.04839
Ir         0.01595        0.49588       -1.62657
C         -3.37732        1.62597       -0.74830
C         -2.96651       -1.14196       -1.38120
C         -2.29701       -0.17816        1.21590
C          0.97091       -1.37222        1.34245
C          2.84585       -1.45009       -0.91399
C          2.53334        0.84937        0.93607
P          1.57215       -0.36697       -0.09317
P         -2.07975        0.29322       -0.56240
C          0.30617       -0.92202       -2.82210
O          0.45033       -1.81317       -3.55171
H         -3.40833        1.87180       -1.82124
H         -4.34573        1.17537       -0.48585
C         -3.13237        2.84845        0.07675
C         -3.73784        2.99694        1.33014
H         -4.43955        2.23745        1.68453
C         -2.25123        3.84099       -0.36066
H         -1.80350        3.74555       -1.35231
C         -3.43749        4.09546        2.12837
H         -3.90813        4.19924        3.10879
C         -1.92465        4.94433        0.43396
C         -0.92403        5.95540       -0.04729
H         -0.98619        6.89234        0.52405
H          0.10501        5.57198        0.05884
H         -1.07156        6.19327       -1.11160
C         -2.52900        5.05714        1.69042
H         -2.28983        5.91165        2.32921
H         -2.84464       -0.93268       -2.45464
H         -2.32663       -2.00985       -1.17029
C         -4.41097       -1.38961       -1.05790
C         -5.37936       -0.70512       -1.81272
H         -5.04317       -0.05365       -2.62385
C         -4.84689       -2.26932       -0.04437
C         -3.91661       -3.11009        0.78452
H         -2.89523       -3.14949        0.39075
H         -4.28500       -4.14523        0.84485
H         -3.85111       -2.73641        1.81796
C         -6.73942       -0.83637       -1.56445
H         -7.46281       -0.28706       -2.17138
C         -6.22445       -2.39033        0.19276
H         -6.55955       -3.07591        0.97674
C         -7.16694       -1.68170       -0.54189
H         -8.23188       -1.80121       -0.32901
H         -3.38313       -0.21940        1.41385
H         -1.95727       -1.22614        1.25657
C         -1.60346        0.59589        2.30747
C         -0.84896        1.74611        2.06369
H         -0.75623        2.11251        1.04119
C         -1.70894        0.11825        3.63322
C         -2.49847       -1.11910        3.94439
H         -3.55212       -1.01694        3.63657
H         -2.48267       -1.33967        5.02043
H         -2.09812       -1.99823        3.41288
C         -0.20716        2.42686        3.09542
H          0.36560        3.32997        2.87157
C         -1.05653        0.81043        4.65793
H         -1.14071        0.43723        5.68253
C         -0.30796        1.95712        4.40078
H          0.18985        2.48112        5.22020
H          1.82677       -1.52166        2.01928
H          0.29485       -0.68823        1.88118
C          0.29871       -2.69764        1.10919
C          0.09702       -3.55025        2.20349
H          0.42233       -3.23444        3.19881
C         -0.12126       -3.13429       -0.15057
H          0.00858       -2.47534       -1.00836
C         -0.50153       -4.79579        2.02839
H         -0.64752       -5.45216        2.88999
C         -0.72214       -4.38292       -0.34759
C         -1.19188       -4.78712       -1.71469
H         -0.96269       -5.84244       -1.92483
H         -2.28575       -4.67037       -1.80147
H         -0.73104       -4.16655       -2.49600
C         -0.90490       -5.21436        0.76212
H         -1.36778       -6.19658        0.63335
H          2.26740       -2.31277       -1.28243
H          3.13570       -0.88297       -1.80700
C          4.04338       -1.91099       -0.13481
C          3.88700       -2.80203        0.93653
H          2.89271       -3.19126        1.16491
C          5.34662       -1.50310       -0.49761
C          5.60430       -0.65712       -1.71013
H          5.06004        0.29684       -1.67719
H          5.29497       -1.18027       -2.62992
H          6.67368       -0.42534       -1.80204
C          4.97458       -3.23577        1.69046
H          4.82007       -3.92886        2.52079
C          6.42722       -1.94799        0.27279
H          7.43429       -1.62424       -0.00393
C          6.25377       -2.79231        1.36621
H          7.11853       -3.11849        1.94897
H          1.77434        1.57376        1.27266
H          2.85593        0.30578        1.83179
C          3.70558        1.55337        0.31611
C          3.54984        2.27775       -0.87057
H          2.57113        2.28199       -1.34919
C          4.96991        1.52500        0.94353
C          5.20176        0.78126        2.22748
H          4.96067       -0.28852        2.12826
H          4.58717        1.18632        3.04789
H          6.25432        0.85278        2.53294
C          4.61294        2.96668       -1.44880
H          4.46269        3.52173       -2.37791
C          6.02794        2.22011        0.34645
H          7.00893        2.19565        0.82891
C          5.86266        2.93681       -0.83616
H          6.70957        3.46863       -1.27628
