96
Cat818.ts34.5.log	Energy: -1663494.3441414
C         -1.15575       -3.76764       -1.27244
H         -1.15260       -4.70723       -0.71311
H         -2.14417       -3.49512       -1.65864
C         -0.00519       -3.49147       -2.09634
H          0.85704       -4.16283       -2.05793
H         -0.17411       -3.09158       -3.10290
H          0.34577       -1.96764       -1.80826
Ir        -0.04276       -2.25130       -0.19491
C         -2.28439       -0.14845       -1.95931
O         -3.23764       -1.21594        0.23726
O         -1.47958        0.66031        0.55663
C          1.65339        0.01473        1.94164
O          3.15515       -1.71827        0.66975
O          2.26227        0.12616       -0.72019
P          1.73209       -0.96139        0.38645
P         -1.74822       -0.73483       -0.28869
C          0.11214       -3.26706        1.40492
O          0.17914       -3.85526        2.39707
H         -1.35546        0.19058       -2.44105
H         -2.58244       -1.08021       -2.46920
C         -3.34759        0.89902       -2.05159
C         -4.68680        0.60784       -1.75486
H         -4.96084       -0.41097       -1.47646
C         -3.01413        2.21462       -2.39450
H         -1.97650        2.45906       -2.63666
C         -5.65741        1.60410       -1.77065
H         -6.70138        1.38947       -1.53481
C         -3.97403        3.22390       -2.41534
H         -3.72001        4.25251       -2.67781
C         -5.28708        2.90481       -2.09500
F         -6.21359        3.86236       -2.10761
C         -3.40014       -2.26256        1.18694
H         -4.34593       -2.76399        0.92478
H         -2.58119       -2.98961        1.06528
C         -3.44566       -1.74262        2.60771
H         -3.39522       -2.60548        3.29425
H         -2.52357       -1.16215        2.79298
C         -4.68006       -0.90455        2.91479
H         -5.57255       -1.55271        2.86302
H         -4.81405       -0.15575        2.11586
C         -4.61951       -0.21587        4.26780
H         -4.49440       -0.94515        5.08421
H         -3.76695        0.48121        4.32177
H         -5.53369        0.36122        4.47328
C         -2.50354        1.51111        1.06963
H         -3.23796        1.74793        0.28575
H         -3.03658        0.98220        1.87334
C         -1.88447        2.77972        1.60921
H         -2.70149        3.37248        2.05697
H         -1.20572        2.52528        2.44288
C         -1.15002        3.61847        0.57364
H         -1.82413        3.80031       -0.28052
H         -0.30396        3.03625        0.17453
C         -0.65084        4.94402        1.12391
H         -1.48670        5.58170        1.45364
H          0.00698        4.79635        1.99520
H         -0.07828        5.50575        0.37054
H          0.60290        0.32763        2.03341
H          1.85275       -0.71828        2.74143
C          2.57179        1.20146        1.99129
C          3.94769        1.08130        1.74851
H          4.37059        0.09166        1.56808
C          2.04954        2.47965        2.21106
H          0.98081        2.59342        2.40326
C          4.76703        2.20335        1.69132
H          5.83501        2.12008        1.48155
C          2.85679        3.61501        2.16353
H          2.45057        4.61594        2.31867
C          4.20724        3.46032        1.88751
F          4.98343        4.54191        1.79351
C          3.56132       -2.83622       -0.11118
H          4.39082       -3.29269        0.45055
H          2.72853       -3.56090       -0.15323
C          4.00024       -2.44920       -1.50948
H          4.31471       -3.37168       -2.02985
H          3.12509       -2.06708       -2.06316
C          5.11590       -1.41549       -1.54595
H          6.00794       -1.82251       -1.03705
H          4.79547       -0.54056       -0.95886
C          5.47517       -0.97718       -2.95550
H          5.80845       -1.82686       -3.57352
H          4.60619       -0.52289       -3.45815
H          6.28263       -0.22918       -2.95425
C          1.41483        1.03436       -1.40294
H          1.22615        0.63553       -2.41692
H          0.44183        1.11909       -0.89190
C          2.08556        2.39103       -1.47158
H          1.41212        3.07613       -2.01758
H          2.17185        2.78887       -0.44753
C          3.46176        2.37547       -2.12046
H          3.37167        2.04002       -3.16947
H          4.07686        1.61794       -1.60950
C          4.15832        3.72511       -2.06156
H          3.56485        4.50937       -2.55943
H          4.31784        4.04407       -1.01918
H          5.14313        3.69331       -2.55195
