106
Cat810.ts34.5.log	Energy: -1872033.5228840
C          2.14466        0.21460       -3.46373
H          2.68765        1.13842       -3.67901
H          2.78112       -0.67582       -3.49094
C          0.79272        0.10376       -3.95475
H          0.31630        0.97015       -4.42084
H          0.48851       -0.84090       -4.42215
H         -0.02611       -0.50730       -2.74646
Ir         0.88220        0.47036       -1.72730
C          1.60433       -3.04265       -0.96027
O          3.50617       -1.33598       -0.63119
O          1.50462       -1.19839        1.04805
C         -1.69473       -0.61229        0.37820
O         -1.24782        2.09583        0.38507
O         -2.29638        1.12224       -1.66873
P         -1.06821        0.78965       -0.62856
P          1.83801       -1.24487       -0.59265
C          1.58830        2.20484       -1.35179
O          2.02938        3.24546       -1.13124
H          2.03095       -3.16775       -1.96753
H          2.21609       -3.63150       -0.26092
C          0.16038       -3.43607       -0.91608
C         -0.40951       -3.94849        0.25556
H          0.21567       -4.11426        1.13578
C         -0.66395       -3.22972       -2.02755
H         -0.22301       -2.83646       -2.94743
C         -1.77162       -4.23128        0.30567
H         -2.21106       -4.61889        1.22760
C         -2.03466       -3.50715       -1.99500
C         -2.88843       -3.28405       -3.20937
H         -3.93535       -3.09093       -2.93429
H         -2.52630       -2.43108       -3.80231
H         -2.87907       -4.16815       -3.86837
C         -2.57986       -4.00908       -0.80776
H         -3.65031       -4.22584       -0.75507
C          4.30952       -0.22442       -0.66573
C          4.12254        0.83482        0.21789
H          3.30675        0.79335        0.94210
C          5.33775       -0.19944       -1.60699
H          5.45848       -1.04577       -2.28539
C          4.95517        1.95926        0.16080
C          4.71169        3.11931        1.07965
H          4.65763        2.79474        2.13000
H          5.50563        3.87414        0.99332
H          3.74973        3.59973        0.84183
C          6.17745        0.90804       -1.65518
H          6.98788        0.94004       -2.38744
C          5.98550        1.98042       -0.78410
H          6.64433        2.85063       -0.83952
C          1.86415       -2.04623        2.05960
C          3.10893       -2.67072        2.11792
H          3.83387       -2.49343        1.32230
C          0.92649       -2.23030        3.08073
H         -0.04095       -1.72767        3.01963
C          3.42773       -3.51070        3.19383
C          4.77140       -4.17867        3.24220
H          4.92665       -4.82412        2.36326
H          5.58318       -3.43429        3.24131
H          4.88122       -4.79947        4.14199
C          1.24621       -3.05750        4.15033
H          0.51773       -3.20643        4.95093
C          2.48422       -3.69918        4.20699
H          2.72279       -4.34991        5.05182
H         -1.88712       -1.40343       -0.36318
H         -0.79829       -0.93628        0.92773
C         -2.85921       -0.43142        1.30401
C         -2.74822        0.34582        2.46201
H         -1.80317        0.83587        2.70598
C         -4.07848       -1.05967        1.03076
H         -4.16588       -1.66857        0.12792
C         -3.84771        0.50583        3.30249
H         -3.75482        1.12003        4.20172
C         -5.19113       -0.90580        1.85925
C         -6.48947       -1.58853        1.54090
H         -6.50120       -1.96026        0.50693
H         -6.66477       -2.44573        2.21210
H         -7.34105       -0.90175        1.66147
C         -5.06121       -0.10749        3.00254
H         -5.92075        0.03080        3.66491
C         -0.30573        2.60405        1.23039
C         -0.31536        3.98325        1.43163
H         -1.04039        4.58273        0.87679
C          0.61091        1.79477        1.90331
H          0.64370        0.71940        1.72808
C          0.58875        4.58232        2.31218
C          0.60216        6.07321        2.48702
H          1.17996        6.55408        1.68020
H         -0.41377        6.49341        2.45440
H          1.06427        6.36297        3.44144
C          1.50849        2.39012        2.78634
H          2.22418        1.76003        3.32061
C          1.50060        3.76673        2.99383
H          2.21211        4.21801        3.69000
C         -3.64394        1.09616       -1.40386
C         -4.21977        1.94265       -0.46084
H         -3.57662        2.61807        0.10423
C         -4.42690        0.21586       -2.15030
H         -3.94499       -0.42090       -2.89356
C         -5.59589        1.89092       -0.21673
C         -6.20049        2.76052        0.84586
H         -5.91556        2.39241        1.84472
H         -5.84447        3.79868        0.76590
H         -7.29799        2.76800        0.78697
C         -5.79855        0.17494       -1.92201
H         -6.42375       -0.50889       -2.50174
C         -6.37824        0.99934       -0.95861
H         -7.45574        0.95368       -0.78075
