68
Cat814.ts34.5.log	Energy: -1277551.1554743
C          1.83170        0.22217       -2.36859
H          1.41662        0.61346       -3.30173
H          2.82125        0.62497       -2.12793
C          1.59548       -1.17235       -2.08015
H          0.93546       -1.74616       -2.73718
H          2.44007       -1.76702       -1.71097
H          1.22279       -1.19809       -0.55641
Ir         0.34378        0.22304       -0.81264
C          2.80756        0.64384        1.89015
C          2.71742        2.71479       -0.07226
C          0.60368        2.49047        1.87760
C         -2.64607        0.56956        1.10219
C         -2.25484       -2.06728       -0.11216
C         -0.68899       -1.29987        2.18042
P         -1.30730       -0.63711        0.56643
P          1.60661        1.45841        0.70659
C         -0.90001        1.27880       -1.75275
O         -1.67929        1.95294       -2.28936
H          3.40020        1.41844        2.40258
H          2.19090        0.13809        2.64936
C          3.69855       -0.34051        1.19983
C          3.32573       -1.68572        1.08277
H          2.39843       -2.02432        1.54902
C          4.90135        0.06168        0.60530
H          5.22551        1.10146        0.69660
C          4.11424       -2.60073        0.39021
H          3.82976       -3.65075        0.30131
C          5.70163       -0.83738       -0.09558
H          6.63992       -0.52836       -0.55954
C          5.29339       -2.16094       -0.19872
F          6.05294       -3.02895       -0.86613
H          3.44871        2.14105       -0.66329
C          1.98020        3.69899       -0.96450
H          1.27576        4.32254       -0.39189
H          1.40057        3.16617       -1.73263
H          3.28772        3.23432        0.71650
H          2.68513        4.37655       -1.46995
H         -0.00808        1.77575        2.45309
C          1.33100        3.44887        2.80670
H          1.90646        4.20246        2.24822
H          2.02810        2.92670        3.47946
H         -0.11030        3.02892        1.23347
H          0.61468        3.99371        3.44145
H         -2.62298        0.62149        2.20133
H         -2.31676        1.54748        0.72558
C         -4.03307        0.26058        0.62364
C         -4.44594        0.63599       -0.66237
H         -3.76149        1.18861       -1.31074
C         -4.93692       -0.44173        1.42996
H         -4.64147       -0.73952        2.43958
C         -5.71647        0.31448       -1.13208
H         -6.04408        0.60508       -2.13190
C         -6.21178       -0.76990        0.97585
H         -6.92164       -1.31349        1.60190
C         -6.58482       -0.38871       -0.30658
F         -7.80220       -0.70012       -0.75101
H         -2.75563       -1.68231       -1.01375
C         -1.36406       -3.24837       -0.45754
H         -0.89144       -3.68526        0.43664
H         -0.56124       -2.94184       -1.14446
H         -3.05416       -2.35325        0.59009
H         -1.94566       -4.04611       -0.94359
H         -0.20851       -0.44550        2.68491
C         -1.68599       -1.98793        3.09652
H         -2.12723       -2.87907        2.62601
H         -2.51299       -1.31956        3.38157
H          0.13450       -1.97988        1.90915
H         -1.19941       -2.31547        4.02832
