108
Cat061.ts34.5.log	Energy: -2158341.7301948
C         -1.30373        3.17389        0.43573
H         -1.40593        3.87347       -0.39911
H         -2.20888        3.09585        1.04866
C         -0.03687        3.06815        1.08015
H          0.81711        3.63038        0.68799
H         -0.01639        3.01496        2.17599
H          0.11563        1.43727        1.26029
Co        -0.42529        1.46104       -0.11920
C         -1.23538       -1.32189        1.74523
C         -3.36926        0.55159        1.38543
C         -2.52373       -1.11909       -0.79970
C          1.19352       -1.19692       -1.47141
C          2.61991        1.29015       -1.64434
C          2.37450       -0.01288        0.94123
P          1.40052        0.41017       -0.57018
P         -1.83317       -0.04439        0.54152
C         -0.80719        1.73876       -1.78303
O         -1.09606        1.87181       -2.89653
H         -2.03237       -2.05534        1.95230
H         -0.43523       -1.87144        1.21802
C         -0.68954       -0.74860        3.04524
H         -0.08375        0.14637        2.81630
H         -1.52082       -0.38899        3.67620
C          0.16096       -1.73736        3.83131
H          0.94952       -2.13842        3.16688
H         -0.45051       -2.61103        4.12118
C          0.81580       -1.13509        5.06612
H          1.40895       -0.25452        4.76069
H          0.03307       -0.74711        5.74153
C          1.70552       -2.11311        5.81621
H          2.16073       -1.65079        6.70508
H          2.52569       -2.47707        5.17553
H          1.13741       -2.99502        6.15335
H         -3.88429       -0.28746        1.88491
H         -3.03065        1.23283        2.18490
C         -4.31379        1.28728        0.44378
H         -3.72866        1.97271       -0.19302
H         -4.78402        0.56585       -0.24688
C         -5.40229        2.06791        1.16617
H         -4.93075        2.80587        1.84101
H         -5.97344        1.38547        1.82231
C         -6.35962        2.78615        0.22562
H         -5.78003        3.45905       -0.43068
H         -6.82821        2.04609       -0.44737
C         -7.43843        3.57702        0.94757
H         -8.11354        4.08398        0.24149
H         -6.99836        4.34922        1.59907
H         -8.05464        2.92281        1.58551
H         -2.91917       -0.42157       -1.55757
H         -1.64876       -1.59085       -1.27652
C         -3.56294       -2.17269       -0.44762
H         -3.14471       -2.89174        0.27748
H         -4.42388       -1.70230        0.05835
C         -4.06323       -2.93662       -1.66691
H         -3.20445       -3.40749       -2.17964
H         -4.48694       -2.22129       -2.39516
C         -5.10186       -4.00023       -1.33948
H         -4.67417       -4.71079       -0.60977
H         -5.95583       -3.52446       -0.82517
C         -5.59775       -4.75746       -2.56079
H         -6.34664       -5.51811       -2.29269
H         -4.76993       -5.27223       -3.07472
H         -6.06260       -4.07586       -3.29126
H          0.84113       -1.91991       -0.71438
H          0.33460       -1.03270       -2.14290
C          2.34878       -1.78462       -2.27222
H          2.62354       -1.09167       -3.08472
H          3.25000       -1.88525       -1.64682
C          2.00538       -3.14106       -2.87413
H          1.09444       -3.04535       -3.49294
H          1.74056       -3.84390       -2.06264
C          3.12669       -3.73841       -3.71269
H          3.38718       -3.03295       -4.52152
H          4.03535       -3.82613       -3.09073
C          2.78043       -5.09377       -4.30748
H          3.60929       -5.49895       -4.90745
H          1.89687       -5.02807       -4.96265
H          2.54993       -5.82888       -3.51948
H          3.55532        0.71025       -1.71948
H          2.16962        1.30323       -2.65238
C          2.89599        2.71523       -1.19331
H          1.93221        3.24585       -1.12428
H          3.31283        2.71346       -0.16982
C          3.84010        3.47127       -2.11627
H          3.42278        3.47218       -3.13973
H          4.80232        2.93117       -2.18649
C          4.09608        4.90543       -1.67438
H          3.13016        5.43565       -1.60098
H          4.51004        4.89939       -0.65021
C          5.03080        5.66723       -2.59980
H          5.19524        6.69892       -2.25357
H          4.62348        5.72077       -3.62230
H          6.01586        5.17730       -2.66498
H          2.58771        0.96200        1.41338
H          1.64698       -0.49628        1.61167
C          3.63803       -0.85331        0.86313
H          3.39805       -1.85315        0.46389
H          4.36098       -0.40693        0.15820
C          4.29608       -1.01692        2.22781
H          3.55430       -1.42797        2.93730
H          4.56405       -0.02114        2.62554
C          5.52905       -1.90876        2.21836
H          5.25560       -2.89829        1.81066
H          6.27308       -1.49281        1.51598
C          6.15742       -2.07761        3.59227
H          7.04279       -2.73031        3.55881
H          5.44332       -2.52141        4.30501
H          6.47428       -1.10778        4.00843
