64
Cat009.ts34.5.log	Energy: -2047654.1833336
C         -0.48955       -3.01613       -1.41346
H         -0.54181       -3.93466       -0.82138
H         -1.35147       -2.87806       -2.07693
C          0.78582       -2.55206       -1.83685
H          1.69430       -3.06334       -1.50276
H          0.88633       -2.15656       -2.85455
H          0.69322       -0.90681       -1.51294
Co         0.05517       -1.44076       -0.28857
C         -1.83348        0.32149       -2.48525
C         -3.31642       -0.73911       -0.32016
C         -1.66252        1.48398        0.13038
C          1.56364        0.08162        2.36698
C          3.29073       -0.81022        0.32854
C          1.69484        1.51368       -0.12292
P          1.57193       -0.18891        0.55244
P         -1.61622       -0.14317       -0.71971
C         -0.25580       -2.29190        1.19149
O         -0.48100       -2.83137        2.18934
H         -0.93513        0.85285       -2.83170
H         -1.92236       -0.61106       -3.06133
H         -2.72647        0.93771       -2.66617
C         -3.51727       -2.06855        0.05853
C         -4.42102        0.12050       -0.39742
C         -5.89252       -1.67693        0.26229
C         -5.70053       -0.34504       -0.10955
C         -4.79979       -2.53602        0.34734
H         -2.65595       -2.73448        0.13351
H         -4.94212       -3.57747        0.64591
H         -6.89674       -2.04162        0.49217
H         -6.55333        0.33589       -0.16882
H         -4.27547        1.17002       -0.66904
C         -1.75777        1.47040        1.53004
C         -1.56608        2.71423       -0.52535
C         -1.66651        3.88283        1.58954
C         -1.56558        3.90547        0.20153
C         -1.76485        2.65808        2.25374
H         -1.83715        0.51122        2.05122
H         -1.85031        2.63015        3.34306
H         -1.66857        4.81694        2.15639
H         -1.47982        4.85812       -0.32661
H         -1.47713        2.75621       -1.61212
H          1.59027       -0.90589        2.84785
H          2.43245        0.66638        2.70056
H          0.63137        0.58490        2.66013
C          3.50204       -2.18803        0.46009
C          4.38376        0.02617        0.07647
C          5.86957       -1.88123        0.09994
C          5.66575       -0.50948       -0.04135
C          4.78498       -2.71998        0.35601
H          2.64173       -2.83899        0.64064
H          4.93743       -3.79652        0.46548
H          6.87525       -2.29830        0.00654
H          6.51196        0.15163       -0.24453
H          4.23277        1.10284       -0.03278
C          1.76869        1.67147       -1.51429
C          1.70684        2.65597        0.68214
C          1.87034        4.07123       -1.27087
C          1.78963        3.92601        0.11083
C          1.86181        2.93693       -2.08442
H          1.75611        0.78589       -2.15583
H          1.92687        3.03977       -3.17047
H          1.93653        5.06662       -1.71664
H          1.78336        4.80754        0.75613
H          1.63424        2.56936        1.76688
