46
Cat034.ts34.5.log	Energy: -1804772.4996298
C          0.44468        2.66703       -1.13382
H          0.20386        3.54574       -0.52868
H          1.46169        2.68699       -1.54145
C         -0.58863        2.07182       -1.91535
H         -1.61475        2.44367       -1.82715
H         -0.35740        1.75953       -2.94121
H         -0.31560        0.48947       -1.66640
Co        -0.15324        0.95583       -0.27393
C          3.20942        0.43817       -0.78790
O          2.00593       -0.66609        1.36131
O          1.47730       -1.68345       -0.94283
C         -1.42472       -1.93553        1.02829
O         -3.10924        0.00339        0.69833
O         -2.19718       -1.08102       -1.44775
P         -1.68220       -0.45828       -0.01000
P          1.59082       -0.20779       -0.18027
C         -0.30066        1.74843        1.27158
O         -0.34009        2.27305        2.29626
H          3.02778        0.78597       -1.81923
C          3.70181        1.57823        0.09371
H          3.96064        1.21600        1.09931
H          2.92409        2.34600        0.21874
H          3.96825       -0.35734       -0.85472
H          4.59286        2.05815       -0.33798
C          2.96760       -1.64794        1.64308
H          2.66699       -2.63227        1.24636
H          3.96383       -1.39100        1.23895
H          3.05345       -1.72591        2.73641
C          2.46916       -2.35266       -1.67498
H          2.78952       -1.77723       -2.56029
H          3.36321       -2.59191       -1.07315
H          2.03256       -3.29922       -2.02572
H         -0.61675       -2.49694        0.53002
C         -1.05262       -1.57784        2.46010
H         -1.84143       -0.97078        2.92806
H         -0.11194       -1.00915        2.48677
H         -2.33963       -2.54865        0.99808
H         -0.91744       -2.48689        3.06580
C         -3.66970        1.25181        0.36973
H         -2.91052        2.05124        0.40697
H         -4.11529        1.24028       -0.64034
H         -4.45899        1.46829        1.10315
C         -3.25235       -2.01014       -1.52492
H         -2.89889       -3.03935       -1.34257
H         -4.05490       -1.77493       -0.80630
H         -3.66495       -1.96157       -2.54303
