100
Cat064.ts34.5.log	Energy: -2248489.0996547
C          1.04659       -0.98081       -3.51621
H          0.25436       -0.84939       -4.25842
H          1.91269       -0.33386       -3.69442
C          1.25195       -2.27797       -2.95947
H          0.55658       -3.08542       -3.20888
H          2.28049       -2.63669       -2.83284
H          1.47544       -1.91902       -1.34778
Co         0.32890       -1.03333       -1.64093
C          0.79801        2.33913       -1.62707
O          1.33860        0.95974        0.65494
O          2.93785        0.93236       -1.36540
C         -1.39038       -0.94886        1.29018
O         -1.51433       -3.15109       -0.34634
O          0.47287       -2.69643        1.20416
P         -0.47003       -1.95134        0.07539
P          1.33151        0.70584       -0.99083
C         -1.24885       -0.65051       -2.26347
O         -2.27408       -0.39476       -2.72777
H          1.49126        3.10636       -1.24225
H          0.95255        2.30129       -2.71776
C         -0.64870        2.66887       -1.28790
H         -1.32112        1.99123       -1.83730
H         -0.83039        2.46472       -0.21904
C         -1.03492        4.11003       -1.58493
H         -0.88044        4.32032       -2.65870
H         -0.35165        4.79347       -1.04681
C         -2.47255        4.43232       -1.20181
H         -3.15067        3.73842       -1.72907
H         -2.61128        4.22134       -0.12604
C         -2.87384        5.86822       -1.49594
H         -3.91581        6.06756       -1.20315
H         -2.78067        6.09675       -2.56982
H         -2.23315        6.58138       -0.95234
C          2.03785        2.02108        1.28663
H          2.56834        1.57337        2.14432
H          2.80702        2.42629        0.60896
C          1.11733        3.12472        1.77351
H          1.73762        3.86400        2.31085
H          0.69122        3.66193        0.91005
C         -0.00817        2.63584        2.67179
H          0.42179        2.16690        3.57462
H         -0.54732        1.83143        2.14714
C         -0.98394        3.73182        3.06539
H         -0.48032        4.54906        3.60634
H         -1.46305        4.17312        2.17589
H         -1.78525        3.34733        3.71493
C          3.82241       -0.15688       -1.55181
H          3.49182       -1.02895       -0.96146
H          3.80432       -0.45944       -2.61332
C          5.22880        0.24312       -1.15994
H          5.90945       -0.56517       -1.48152
H          5.51419        1.13632       -1.74272
C          5.41815        0.51127        0.32578
H          5.12782       -0.38799        0.89566
H          4.71762        1.30135        0.63780
C          6.83852        0.91245        0.68691
H          7.56062        0.12660        0.41168
H          7.14011        1.83246        0.16060
H          6.94511        1.09728        1.76668
H         -1.73067       -1.62118        2.09536
H         -0.62132       -0.29045        1.72511
C         -2.53186       -0.13429        0.70465
H         -2.11541        0.60741        0.00643
H         -3.18848       -0.77665        0.09459
C         -3.36364        0.58279        1.75720
H         -2.70080        1.19758        2.39182
H         -3.82134       -0.15926        2.43747
C         -4.44995        1.46575        1.16017
H         -3.98531        2.17649        0.45450
H         -5.12705        0.84260        0.54926
C         -5.24926        2.22918        2.20305
H         -6.02799        2.85542        1.74187
H         -4.59770        2.89183        2.79590
H         -5.74759        1.54360        2.90747
C         -2.16583       -4.00589        0.58075
H         -2.13689       -5.01483        0.13634
H         -1.59783       -4.05008        1.52563
C         -3.60556       -3.59119        0.82488
H         -4.07044       -4.35013        1.47916
H         -3.62803       -2.64849        1.39732
C         -4.42074       -3.42621       -0.45015
H         -4.47589       -4.39641       -0.97485
H         -3.87848       -2.75030       -1.13146
C         -5.81999       -2.89174       -0.19439
H         -6.39228       -3.55486        0.47470
H         -5.78299       -1.89805        0.28226
H         -6.39109       -2.78768       -1.12916
C          1.77798       -3.18598        0.97959
H          1.82845       -4.18937        1.43583
H          1.96718       -3.30517       -0.10131
C          2.80215       -2.25724        1.59797
H          3.81172       -2.62909        1.34678
H          2.69300       -1.26920        1.12068
C          2.65787       -2.10272        3.10467
H          2.77435       -3.08990        3.58672
H          1.62719       -1.77834        3.32250
C          3.64998       -1.11806        3.70074
H          4.69072       -1.42837        3.51190
H          3.52494       -0.11564        3.26103
H          3.52444       -1.02168        4.78986
