100
Cat073.ts34.5.log	Energy: -2343461.4321364
C          1.47769        0.76073        3.18003
H          1.34558        0.15752        4.08318
H          2.52590        0.96931        2.93904
C          0.49115        1.73508        2.86174
H         -0.42353        1.80366        3.46062
H          0.82371        2.71857        2.50712
H          0.33586        1.51209        1.21598
Co         0.35177        0.10122        1.65542
C          2.19582        0.99189       -1.10806
C          3.49744       -0.89982        0.64681
C          1.33947       -1.74098       -0.96132
C         -2.13082       -1.47995       -0.04399
C         -2.92437        0.86616        1.40826
C         -1.39000        1.16348       -0.98677
P         -1.47715        0.14248        0.53661
P          1.82390       -0.32986        0.12033
C          0.02711       -1.39815        2.46136
O         -0.16188       -2.42341        2.96706
H          2.89193        0.63389       -1.88434
H          1.23769        1.19987       -1.61090
C          2.70743        2.26851       -0.46057
H          1.99612        2.57098        0.32709
H          3.66542        2.07659        0.05418
C          2.87255        3.40801       -1.45537
H          1.92716        3.53407       -2.01279
H          3.63026        3.13296       -2.21176
C          3.25804        4.73045       -0.80860
H          2.50189        4.98993       -0.04580
H          4.20452        4.60319       -0.25405
C          3.39333        5.87208       -1.80292
H          3.67116        6.81495       -1.30783
H          2.44684        6.04491       -2.34069
H          4.16414        5.65383       -2.55958
C          3.63606       -1.48619        1.90732
H          2.76812       -1.54699        2.56677
C          4.61962       -0.81319       -0.18642
H          4.52780       -0.37023       -1.18150
C          4.87319       -1.98459        2.31438
H          4.97343       -2.44910        3.29851
C          5.86949       -1.29253        0.21256
C          7.06819       -1.17372       -0.68405
H          6.78767       -0.82328       -1.68732
H          7.80203       -0.46084       -0.27370
H          7.58389       -2.14028       -0.79402
C          5.97976       -1.88474        1.47799
H          6.94832       -2.27132        1.80825
C          1.08488       -1.62027       -2.33099
H          1.25858       -0.67687       -2.84951
C          1.09996       -2.97328       -0.33808
H          1.28249       -3.07384        0.73513
C          0.57289       -2.70632       -3.04322
H          0.36208       -2.60115       -4.11082
C          0.59502       -4.07002       -1.03748
C          0.35036       -5.37430       -0.33617
H          1.24560       -6.01706       -0.37584
H          0.10725       -5.21509        0.72434
H         -0.47544       -5.93289       -0.80051
C          0.32176       -3.91657       -2.40429
H         -0.09250       -4.75618       -2.96938
H         -1.37072       -1.87414       -0.73913
H         -2.07384       -2.13666        0.83937
C         -3.52211       -1.53090       -0.65421
H         -4.26993       -1.25885        0.10913
H         -3.62236       -0.77342       -1.45051
C         -3.84496       -2.90518       -1.22565
H         -3.73615       -3.66480       -0.43010
H         -3.08922       -3.16807       -1.98884
C         -5.23683       -3.00263       -1.83337
H         -5.98580       -2.74058       -1.06520
H         -5.34046       -2.23675       -2.62269
C         -5.54965       -4.37498       -2.40746
H         -6.56070       -4.41588       -2.84050
H         -5.48826       -5.15521       -1.63167
H         -4.83601       -4.64714       -3.20201
C         -3.00877        0.68793        2.79135
H         -2.19348        0.17791        3.31141
C         -3.95446        1.53978        0.74022
H         -3.88879        1.68817       -0.34113
C         -4.11923        1.16369        3.48707
H         -4.18594        1.01999        4.56837
C         -5.06764        2.03243        1.42603
C         -6.16610        2.75602        0.70167
H         -6.29601        3.77795        1.09213
H         -5.95648        2.83029       -0.37452
H         -7.13163        2.23952        0.82286
C         -5.13603        1.83169        2.81153
H         -5.99892        2.21055        3.36702
C         -1.39531        0.61735       -2.27369
H         -1.54504       -0.45232       -2.42260
C         -1.17244        2.53980       -0.83810
H         -1.15656        2.97034        0.16818
C         -1.17139        1.43818       -3.37940
H         -1.16287        1.00316       -4.38196
C         -0.95763        3.37661       -1.93523
C         -0.74579        4.85029       -1.74169
H         -1.70542        5.36902       -1.58159
H         -0.11660        5.05300       -0.86220
H         -0.26518        5.30781       -2.61818
C         -0.95145        2.80231       -3.21379
H         -0.76900        3.43482       -4.08684
