80
Cat018.ts34.5.log	Energy: -2335005.8390608
C          0.78942       -2.90835       -2.68211
H          1.39364       -3.77881       -2.41295
H         -0.18599       -3.17086       -3.10573
C          1.44686       -1.73367       -3.14193
H          2.54129       -1.68853       -3.15080
H          1.00761       -1.18239       -3.98166
H          0.69268       -0.53011       -2.31012
Co         0.79446       -1.52881       -1.21911
C         -2.47878       -1.29570       -2.19347
O         -1.87569       -2.51202        0.15424
O         -1.71137        0.03829        0.03342
C          1.54939        0.22467        1.54030
O          3.26070        0.49368       -0.53227
O          1.03933        1.56236       -0.77511
P          1.64505        0.11059       -0.26963
P         -1.25147       -1.32156       -0.84244
C          1.36004       -2.71412       -0.06913
O          1.67133       -3.50842        0.70199
H         -2.22923       -0.47781       -2.88410
H         -2.39099       -2.25062       -2.73182
H         -3.50990       -1.16098       -1.83820
C         -3.07575       -2.42545        0.79972
C         -4.24622       -2.89223        0.20245
H         -4.19824       -3.33413       -0.79427
C         -3.12487       -1.88709        2.08707
H         -2.20028       -1.52735        2.54078
C         -5.45823       -2.79533        0.88331
H         -6.37045       -3.15844        0.40179
C         -4.34044       -1.80202        2.75730
H         -4.36626       -1.37176        3.76245
C         -5.53182       -2.24689        2.16822
C         -6.83531       -2.16992        2.90928
H         -7.69245       -2.19369        2.22123
H         -6.90456       -1.25022        3.50904
H         -6.94753       -3.01943        3.60367
C         -2.61747        0.98121       -0.37504
C         -3.92126        0.96736        0.11856
H         -4.22464        0.17994        0.81030
C         -2.21882        1.97733       -1.26904
H         -1.18929        1.97379       -1.63307
C         -4.81696        1.95597       -0.28421
H         -5.83848        1.93578        0.10595
C         -3.12816        2.95415       -1.66195
H         -2.80499        3.73057       -2.36122
C         -4.44248        2.96562       -1.17756
C         -5.40558        4.04314       -1.58488
H         -5.23502        4.96743       -1.00772
H         -6.44793        3.73774       -1.41475
H         -5.29539        4.30163       -2.64871
H          2.07105       -0.64370        1.96819
H          1.99592        1.15250        1.92364
H          0.48583        0.17369        1.81540
C          4.25863       -0.29315       -0.02536
C          4.52108       -1.55780       -0.55597
H          3.89919       -1.92835       -1.37103
C          5.04163        0.19791        1.01832
H          4.82905        1.19329        1.41403
C          5.55854       -2.32210       -0.03200
H          5.75336       -3.31237       -0.45306
C          6.08231       -0.57642        1.52580
H          6.69583       -0.17920        2.33926
C          6.35675       -1.85102        1.01794
C          7.45561       -2.69941        1.58981
H          7.04798       -3.48731        2.24489
H          8.15629       -2.10139        2.18965
H          8.02990       -3.20296        0.79752
C          1.30838        2.75834       -0.15340
C          2.49657        3.44099       -0.41112
H          3.22895        2.99256       -1.08274
C          0.35888        3.30182        0.71012
H         -0.56449        2.75178        0.89903
C          2.72546        4.66925        0.20294
H          3.66053        5.19899       -0.00033
C          0.60390        4.53270        1.31315
H         -0.14571        4.95215        1.98989
C          1.78743        5.23997        1.07230
C          2.03145        6.58180        1.70027
H          1.70288        7.39689        1.03362
H          3.09976        6.74245        1.90709
H          1.48040        6.69119        2.64551
