68
Cat017.ts34.5.log	Energy: -2236401.4950381
C          0.24269       -2.85883        2.29881
H          0.14957       -3.91245        2.02411
H          1.20354       -2.61170        2.76191
C         -0.92206       -2.13767        2.67018
H         -1.90420       -2.61329        2.58599
H         -0.86419       -1.42930        3.50535
H         -0.73955       -0.72221        1.84405
Co        -0.31367       -1.65945        0.77945
C          2.02978        0.69643        1.62284
O          2.80268       -1.65352        0.50131
O          1.67169        0.10801       -1.00652
C         -1.71622       -0.59943       -2.10232
O         -3.32114       -1.00090        0.05927
O         -1.77340        1.06544       -0.12262
P         -1.73729       -0.60647       -0.29362
P          1.48371       -0.62558        0.49516
C         -0.24621       -3.00176       -0.33408
O         -0.15741       -3.87208       -1.08162
H          1.28531        1.50543        1.59107
H          2.02341        0.26650        2.63550
H          3.02491        1.10159        1.39552
C          4.05379       -1.32536        0.07105
C          5.00589       -0.84258        0.97121
H          4.73592       -0.73419        2.02324
C          4.38277       -1.50266       -1.27507
H          3.61850       -1.88194       -1.95481
C          6.28225       -0.51573        0.51504
H          7.02557       -0.13598        1.22019
C          5.66087       -1.17659       -1.72004
H          5.91397       -1.31007       -2.77445
C          6.61242       -0.67543       -0.83046
H          7.61278       -0.41703       -1.18438
C          2.03489        1.39552       -1.28977
C          3.36172        1.82414       -1.20170
H          4.13672        1.12877       -0.87853
C          1.04375        2.27558       -1.73235
H          0.01288        1.92220       -1.78487
C          3.68408        3.13614       -1.54483
H          4.72397        3.46405       -1.47382
C          1.37888        3.58265       -2.07805
H          0.59786        4.26395       -2.42502
C          2.69950        4.02079       -1.98198
H          2.96094        5.04615       -2.25235
H         -0.69815       -0.32480       -2.41336
H         -1.92936       -1.61758       -2.45792
H         -2.44979        0.10539       -2.51674
C         -4.40395       -0.58701       -0.67356
C         -5.07213       -1.52947       -1.45642
H         -4.70027       -2.55590       -1.47409
C         -4.85488        0.73316       -0.61538
H         -4.32807        1.45725        0.00681
C         -6.19433       -1.14787       -2.18754
H         -6.71719       -1.88793       -2.79812
C         -5.97747        1.10364       -1.35369
H         -6.33117        2.13644       -1.30749
C         -6.64939        0.16977       -2.14143
H         -7.52914        0.46748       -2.71605
C         -1.71474        1.69678        1.08463
C         -2.39718        1.21789        2.20834
H         -3.00103        0.31225        2.13084
C         -0.96521        2.87302        1.16841
H         -0.44118        3.23094        0.28134
C         -2.30361        1.91054        3.41466
H         -2.83608        1.52980        4.28960
C         -0.88758        3.55846        2.37793
H         -0.29686        4.47588        2.43565
C         -1.54907        3.07830        3.50849
H         -1.48182        3.61614        4.45649
