60
Cat024.ts34.5.log	Energy: -1763948.3635388
C         -0.45593       -2.39671       -1.28755
H         -0.27870       -3.28165       -0.66944
H         -1.42141       -2.41505       -1.80648
C          0.65880       -1.79560       -1.94216
H          1.66531       -2.18795       -1.75696
H          0.53526       -1.47323       -2.98388
H          0.43881       -0.20716       -1.67345
Co         0.03370       -0.70695       -0.33236
C         -1.60269        2.00147       -1.66850
C         -3.23739       -0.27166       -1.23427
C         -2.34686        1.29620        1.01290
C          1.36970        2.02535        1.27367
C          2.89078       -0.34974        1.44688
C          2.76623        1.10518       -1.05998
P          1.69447        0.48845        0.31433
P         -1.71816        0.53760       -0.55606
C         -0.18877       -1.46285        1.20404
O         -0.37791       -1.93391        2.24491
H         -0.79330        2.65982       -1.31861
H         -1.33257        1.64910       -2.67503
H         -2.53637        2.58119       -1.73269
H         -4.01182        0.48536       -1.44882
H         -2.93958       -0.69847       -2.20822
C         -3.78410       -1.36945       -0.33110
H         -4.16971       -0.92032        0.60025
H         -2.95244       -2.02511       -0.02437
C         -4.88100       -2.19164       -0.98904
H         -5.73292       -1.56045       -1.28972
H         -4.50873       -2.69611       -1.89530
H         -5.26450       -2.96863       -0.31023
H         -2.43016        0.46214        1.73089
H         -1.51754        1.91735        1.39118
C         -3.63689        2.10320        0.97729
H         -4.46296        1.47007        0.61206
H         -3.54500        2.92741        0.24987
C         -4.00542        2.67302        2.33956
H         -4.13792        1.87077        3.08298
H         -3.21685        3.34319        2.71808
H         -4.94247        3.24937        2.29900
H          0.78404        1.76055        2.16610
H          2.29205        2.53360        1.59322
H          0.76973        2.71762        0.66487
H          3.69104        0.34799        1.74903
H          2.31304       -0.58739        2.35709
C          3.46689       -1.62911        0.85738
H          4.07222       -1.38621       -0.03405
H          2.62794       -2.24631        0.49424
C          4.30971       -2.41738        1.84687
H          5.16323       -1.82396        2.21271
H          3.71297       -2.71431        2.72396
H          4.71240       -3.33509        1.39165
H          2.96358        0.22918       -1.70064
H          2.11263        1.76168       -1.66109
C          4.06647        1.81314       -0.70920
H          4.71782        1.13014       -0.13842
H          3.86347        2.66642       -0.04013
C          4.81216        2.30535       -1.94118
H          5.06073        1.47041       -2.61566
H          4.20380        3.02168       -2.51627
H          5.75346        2.80783       -1.67097
