60
Cat089.ts34.5.log	Energy: -1763942.1998960
C         -0.62554       -1.94174        2.02278
H         -0.24666       -1.83318        3.04310
H         -1.71374       -2.08143        1.98764
C          0.18512       -2.61639        1.06403
H          1.18893       -2.94899        1.34538
H         -0.30124       -3.32023        0.37678
H          0.06832       -1.62819       -0.28524
Co         0.17665       -0.59743        0.77256
C         -2.79116       -1.26474       -0.65595
C         -2.83683        0.89901        1.29864
C         -1.74734        1.41374       -1.31832
C          1.83679        1.89601       -0.97641
C          3.49465       -0.16976        0.16766
C          1.86514       -0.67660       -2.18633
P          1.78006        0.08212       -0.49960
P         -1.73390        0.13175        0.02519
C          0.71605        0.30971        2.14093
O          1.06802        0.89250        3.07861
H         -2.51853       -2.09828        0.01482
C         -4.30658       -1.11149       -0.59018
H         -4.79092       -2.02461       -0.97450
H         -4.66442       -0.96405        0.43853
H         -4.67213       -0.26967       -1.19610
C         -2.31847       -1.64306       -2.05565
H         -1.22330       -1.75274       -2.09258
H         -2.76169       -2.60231       -2.36737
H         -2.61179       -0.88946       -2.80360
H         -2.97635        0.12423        2.07068
C         -2.25905        2.15965        1.92344
H         -2.11863        2.95797        1.17746
H         -1.28566        1.96758        2.39577
H         -3.83077        1.10398        0.87034
H         -2.93395        2.55532        2.69811
H         -1.15572        0.98359       -2.14302
C         -3.06688        1.96565       -1.83423
H         -3.69140        2.36639       -1.02150
H         -3.65707        1.20202       -2.36045
H         -1.12761        2.23203       -0.91819
H         -2.89210        2.78860       -2.54546
H          1.02141        1.97495       -1.71679
C          1.48887        2.79180        0.20528
H          1.45490        3.84737       -0.10920
H          0.51603        2.52513        0.63882
H          2.23560        2.71147        1.01121
C          3.13276        2.34848       -1.64134
H          3.42287        1.71920       -2.49554
H          3.02249        3.37809       -2.01846
H          3.97029        2.35502       -0.92729
H          3.68945        0.70433        0.81238
C          3.67960       -1.44106        0.97987
H          3.51525       -2.34579        0.37633
H          2.96485       -1.47051        1.81462
H          4.21807       -0.11558       -0.66300
H          4.69862       -1.49539        1.39332
H          2.64837       -0.16424       -2.76795
C          2.08576       -2.17960       -2.22171
H          1.33997       -2.71003       -1.61115
H          3.08195       -2.45293       -1.84301
H          0.90142       -0.42386       -2.66012
H          2.01127       -2.56078       -3.25179
