94
Cat057.ts34.5.log	Energy: -2294164.5156988
C         -0.16691       -2.30084        2.92121
H         -0.47703       -3.34579        3.01060
H          0.85293       -2.12068        3.28076
C         -1.14225       -1.27886        3.12048
H         -2.18922       -1.56577        3.27272
H         -0.86930       -0.40372        3.72401
H         -0.81347       -0.23689        1.91988
Co        -0.67232       -1.50550        1.15629
C          2.11701        0.57584        1.02003
C          2.55377       -2.28212        0.83981
C          1.49914       -0.82776       -1.45518
C         -2.52149       -1.21106       -1.70144
C         -3.84788       -0.74532        0.84043
C         -2.07810        1.28018       -0.34135
P         -2.18779       -0.54359       -0.00087
P          1.28920       -0.95865        0.41801
C         -0.94984       -3.07026        0.46588
O         -1.08970       -4.11292       -0.01717
H          1.60445        1.40066        0.50499
C          2.00747        0.76225        2.52252
H          2.49325       -0.05333        3.08272
H          0.95432        0.80496        2.83553
H          3.16358        0.60232        0.68156
H          2.48264        1.70533        2.83374
H          2.56671       -2.31797        1.93943
H          2.09434       -3.22465        0.50491
C          3.92890       -2.11590        0.28407
C          4.30647       -2.75186       -0.90666
H          3.61036       -3.43966       -1.39448
C          4.86476       -1.28057        0.91068
H          4.60010       -0.80816        1.86102
C          5.56257       -2.52491       -1.46429
H          5.84330       -3.02850       -2.39249
C          6.12505       -1.03103        0.36050
C          7.07866       -0.08191        1.02646
H          6.97682        0.93238        0.60479
H          6.88680       -0.00805        2.10643
H          8.12434       -0.39082        0.88265
C          6.46249       -1.66192       -0.84389
H          7.44571       -1.48627       -1.28906
H          2.11141       -1.68741       -1.76467
H          0.49534       -0.98107       -1.87207
C          2.08938        0.44205       -1.98526
C          1.27348        1.43579       -2.53607
H          0.20074        1.25284       -2.64143
C          3.46802        0.68207       -1.91313
H          4.12178       -0.09369       -1.50837
C          1.81880        2.64431       -2.96821
H          1.16923        3.41011       -3.40001
C          4.03188        1.88759       -2.33484
C          5.50908        2.12335       -2.20144
H          6.05338        1.17520       -2.08596
H          5.91595        2.65407       -3.07523
H          5.72956        2.74212       -1.31512
C          3.18686        2.87520       -2.85932
H          3.60884        3.82538       -3.19850
H         -3.09765       -2.13632       -1.53311
C         -3.19742       -0.32462       -2.73753
H         -2.56440        0.53102       -3.01559
H         -4.16199        0.06937       -2.38971
H         -1.54312       -1.55304       -2.07508
H         -3.38600       -0.89704       -3.65919
H         -3.91708       -1.83200        1.00132
H         -3.72765       -0.29873        1.83838
C         -5.06322       -0.22411        0.14375
C         -5.43757        1.12312        0.23612
H         -4.87032        1.80414        0.87598
C         -5.83650       -1.07438       -0.65646
H         -5.56209       -2.13194       -0.72153
C         -6.53113        1.60021       -0.48243
H         -6.80983        2.65429       -0.40854
C         -6.93963       -0.61452       -1.38100
C         -7.76210       -1.55855       -2.20930
H         -7.16277       -2.40694       -2.56986
H         -8.59620       -1.97400       -1.61937
H         -8.20044       -1.05210       -3.08146
C         -7.27172        0.74270       -1.29228
H         -8.12568        1.12759       -1.85635
H         -1.44150        1.36910       -1.23300
H         -3.07907        1.63481       -0.63797
C         -1.49568        2.13012        0.74906
C         -2.03468        2.16980        2.04290
H         -2.91362        1.57260        2.29159
C         -0.37137        2.91460        0.48138
H          0.06109        2.89247       -0.52317
C         -1.44798        2.95929        3.02693
H         -1.87530        2.97635        4.03254
C          0.23866        3.70894        1.45934
C          1.46365        4.50672        1.11875
H          2.22181        3.87632        0.62716
H          1.22474        5.32229        0.41726
H          1.91626        4.95546        2.01406
C         -0.31469        3.72010        2.74184
H          0.14733        4.32663        3.52541
