36
Cat001.ts34.5.log	Energy: -1566753.2972744
C         -1.02100       -2.22898       -0.85709
H         -0.91231       -3.10237       -0.20763
H         -2.05606       -2.06786       -1.18554
C          0.03350       -1.92601       -1.77465
H          0.95827       -2.51246       -1.73745
H         -0.23496       -1.65637       -2.80390
H          0.15140       -0.31760       -1.63239
Co         0.00248       -0.65306       -0.18724
C         -2.65799        1.07527       -1.47064
C         -3.03597       -0.05953        1.10163
C         -1.53653        2.30585        0.81485
C          2.25817        1.24598        1.51865
C          3.30684       -0.34314       -0.59204
C          1.86265        2.01649       -1.18639
P          1.77074        0.53611       -0.10249
P         -1.70537        0.64000        0.04331
C          0.28270       -1.39104        1.35627
O          0.43817       -1.84300        2.41040
H         -2.01624        1.67198       -2.13592
H         -2.92457        0.15039       -2.00409
H         -3.57802        1.64007       -1.24995
H         -3.34996       -1.02812        0.68702
H         -2.62725       -0.24516        2.10602
H         -3.91058        0.60607        1.17914
H         -2.50560        2.82195        0.90811
H         -1.09648        2.19077        1.81673
H         -0.86011        2.93204        0.21487
H          2.34641        0.43326        2.25427
H          3.21123        1.79429        1.46178
H          1.46861        1.92884        1.86443
H          3.45966       -1.19205        0.08994
H          3.17724       -0.74596       -1.60718
H          4.19250        0.31174       -0.56899
H          1.73765        1.69971       -2.23206
H          1.04095        2.70451       -0.94225
H          2.82099        2.54804       -1.07872
