108
Cat083.ts34.5.log	Energy: -2158344.1333929
C          1.29693       -3.12113       -0.66931
H          1.33097       -3.53791       -1.68022
H          2.24050       -3.23144       -0.12304
C          0.07566       -3.21171        0.05999
H         -0.81276       -3.63123       -0.42363
H          0.12655       -3.48745        1.12104
H         -0.03625       -1.70838        0.72566
Co         0.42246       -1.31936       -0.62763
C          1.33894        0.79209        1.92946
C          3.42563       -0.91526        0.97147
C          2.56560        1.31110       -0.61927
C         -1.20042        1.59306       -1.05570
C         -2.67890       -0.70931       -1.89640
C         -2.34953       -0.20771        0.95114
P         -1.41559       -0.19907       -0.64921
P          1.87800       -0.08343        0.38614
C          0.72288       -1.07254       -2.31219
O          0.95915       -0.85720       -3.42539
H          2.15691        1.42259        2.31619
H          0.53257        1.48058        1.62023
C          0.82564       -0.14161        3.01601
H          0.18510       -0.91127        2.55052
H          1.67091       -0.68937        3.46826
C          0.03271        0.56531        4.10589
H         -0.80854        1.11128        3.63909
H          0.65786        1.34011        4.58572
C         -0.51665       -0.37872        5.16596
H         -1.08349       -1.18498        4.66700
H          0.32372       -0.88076        5.67688
C         -1.40636        0.31018        6.18748
H         -1.77891       -0.39544        6.94539
H         -2.28308        0.77032        5.70294
H         -0.86473        1.11126        6.71589
H          3.09698       -1.80781        1.53156
H          3.95377       -0.26721        1.69058
C          4.33115       -1.32860       -0.18229
H          3.70517       -1.72675       -0.99904
H          4.83557       -0.43695       -0.59617
C          5.39497       -2.36800        0.17535
H          4.86554       -3.25683        0.56894
C          6.15867       -2.79437       -1.07257
H          5.47796       -3.18471       -1.84492
H          6.89828       -3.57789       -0.84541
H          6.70256       -1.94000       -1.50964
C          6.34691       -1.87140        1.25764
H          7.11019       -2.62857        1.49560
H          5.81927       -1.62857        2.19232
H          6.87438       -0.96106        0.92460
H          1.69704        1.88670       -0.97909
H          2.97121        0.82110       -1.51877
C          3.58954        2.23734        0.01883
H          3.11360        2.79751        0.84112
H          4.40125        1.65011        0.48543
C          4.22131        3.24381       -0.94926
H          3.39605        3.77547       -1.46012
C          5.04186        4.27562       -0.18381
H          4.42829        4.81046        0.55811
H          5.48142        5.02459       -0.86077
H          5.87148        3.79083        0.35792
C          5.07184        2.56140       -2.01535
H          5.50788        3.29840       -2.70731
H          4.49228        1.84743       -2.61915
H          5.90586        2.00770       -1.55137
H         -0.46178        1.97145       -0.32975
H         -0.67401        1.58535       -2.02674
C         -2.39387        2.53513       -1.11238
H         -3.17747        2.12331       -1.77121
H         -2.85008        2.62227       -0.11192
C         -2.01471        3.92712       -1.60160
H         -1.56406        3.84860       -2.60772
H         -1.22021        4.33788       -0.95170
C         -3.18540        4.89916       -1.64478
H         -3.97757        4.48118       -2.29114
H         -3.63183        4.97223       -0.63701
C         -2.80218        6.28550       -2.13657
H         -3.66818        6.96429       -2.15656
H         -2.38655        6.24647       -3.15632
H         -2.03678        6.74180       -1.48828
H         -2.25662       -0.43142       -2.87788
H         -3.59998       -0.12137       -1.76114
C         -2.95421       -2.20434       -1.86212
H         -1.99290       -2.72230       -2.00904
H         -3.30374       -2.50228       -0.85526
C         -3.96572       -2.70102       -2.89636
H         -3.61689       -2.35918       -3.88918
C         -3.99833       -4.22494       -2.91016
H         -3.00155       -4.64530       -3.11487
H         -4.69131       -4.60778       -3.67544
H         -4.33082       -4.61755       -1.93437
C         -5.36074       -2.13004       -2.66483
H         -6.07372       -2.50216       -3.41688
H         -5.37424       -1.03079       -2.71484
H         -5.74195       -2.42438       -1.67194
H         -1.81508        0.50887        1.59933
H         -2.15109       -1.19829        1.38687
C         -3.84414        0.08066        0.95400
H         -4.06656        0.97338        0.34984
H         -4.38227       -0.75157        0.46595
C         -4.43197        0.29265        2.35316
H         -3.89544        1.14875        2.80650
C         -5.90726        0.66307        2.25694
H         -6.05904        1.55532        1.62940
H         -6.33617        0.87168        3.24928
H         -6.48880       -0.16049        1.80985
C         -4.23026       -0.91478        3.26191
H         -4.67545       -0.74208        4.25396
H         -3.16565       -1.14472        3.41599
H         -4.70897       -1.81163        2.83343
