60
Cat004.ts34.5.log	Energy: -1763939.1984116
C         -0.86479       -2.58668       -1.01047
H         -0.77016       -3.45610       -0.35309
H         -1.85008       -2.51314       -1.48324
C          0.28136       -2.17994       -1.75486
H          1.23276       -2.69503       -1.58155
H          0.14942       -1.91950       -2.81289
H          0.27680       -0.56837       -1.59690
Co        -0.09912       -0.92000       -0.20046
C         -1.73958        1.72020       -1.69494
C         -3.42933       -0.36952       -0.76847
C         -2.25708        1.53100        1.12174
C          1.85952        0.66831        2.05110
C          3.23317       -0.95992        0.08956
C          2.08024        1.76830       -0.57504
P          1.72265        0.14369        0.29308
P         -1.79344        0.45719       -0.35141
C         -0.16380       -1.69006        1.34480
O         -0.21793       -2.22849        2.36893
H         -0.79982        2.28314       -1.63078
H         -1.74295        1.19030       -2.65968
H         -2.58080        2.42889       -1.67124
H         -3.15779       -0.94299       -1.67308
C         -3.84560       -1.36773        0.30621
H         -4.62704       -2.04288       -0.07803
H         -2.99713       -1.98059        0.64238
H         -4.26698       -0.85297        1.18378
C         -4.58357        0.55553       -1.13313
H         -4.36345        1.18925       -2.00355
H         -5.47727       -0.04010       -1.38196
H         -4.86411        1.21478       -0.29573
H         -3.32097        1.79324        0.98429
C         -2.10344        0.77436        2.43573
H         -2.50520        1.37287        3.26974
H         -2.61787       -0.19500        2.43572
H         -1.04455        0.56896        2.64683
C         -1.45726        2.82821        1.16324
H         -1.66321        3.48504        0.30673
H         -1.69581        3.39309        2.07891
H         -0.37466        2.62562        1.17936
H          1.70488       -0.20895        2.69516
H          2.82306        1.13172        2.30147
H          1.05436        1.38423        2.26660
H          2.79713       -1.93587        0.36496
C          3.68350       -1.05416       -1.36456
H          4.35032       -1.92091       -1.49904
H          2.83792       -1.17093       -2.05633
H          4.24948       -0.16029       -1.66797
C          4.41476       -0.69817        1.01674
H          4.13880       -0.77213        2.07773
H          5.20100       -1.44907        0.83323
H          4.86524        0.29156        0.85095
H          1.24459        2.37827       -0.18437
C          3.38307        2.46500       -0.19720
H          3.40747        3.47756       -0.63216
H          3.51221        2.57400        0.88879
H          4.25736        1.92521       -0.59114
C          1.91898        1.70706       -2.09061
H          1.03265        1.12615       -2.38095
H          1.81153        2.72398       -2.50127
H          2.79346        1.25090       -2.57492
