82
Cat058.ts34.5.log	Energy: -2444528.6250845
C          1.08370       -3.28644        1.09271
H          1.21175       -4.08736        0.35866
H          1.96999       -3.12836        1.71830
C         -0.20644       -3.09991        1.67085
H         -1.04752       -3.70260        1.30578
H         -0.27275       -2.92893        2.75246
H         -0.36318       -1.47729        1.65524
Co         0.23333       -1.65514        0.30424
C          1.14939        1.28028        1.87263
C          3.27237       -0.53352        1.59824
C          2.23955        0.85320       -0.75589
C         -1.45567        0.43909       -1.75936
C         -2.85051       -1.99079       -0.82100
C         -2.42947        0.32560        1.02421
P         -1.59196       -0.69349       -0.30245
P          1.67159       -0.09781        0.74913
C          0.58238       -2.18720       -1.30424
O          0.85470       -2.50046       -2.38505
H          0.30099        1.77994        1.37428
C          0.74760        0.81476        3.26286
H          1.60602        0.40132        3.81396
H         -0.02143        0.02750        3.21672
H          1.96005        2.02428        1.93387
H          0.34607        1.64803        3.85943
H          3.69354        0.38807        2.03127
H          2.97915       -1.17479        2.44854
C          4.33224       -1.21673        0.77734
C          4.02801       -2.11346       -0.25357
H          2.98381       -2.34334       -0.46790
C          5.68239       -0.94490        1.03574
H          5.94485       -0.23832        1.82749
C          5.03196       -2.70888       -1.01436
H          4.79432       -3.40033       -1.82478
C          6.69904       -1.53607        0.29162
H          7.75139       -1.32298        0.48823
C          6.35860       -2.41211       -0.73242
F          7.32538       -2.97548       -1.45657
H          2.57228        0.08583       -1.47077
H          1.31108        1.27435       -1.17241
C          3.28269        1.91284       -0.58303
C          2.94241        3.21230       -0.18093
H          1.89164        3.47054       -0.02632
C          4.63555        1.63373       -0.81978
H          4.92635        0.63880       -1.16202
C          3.91236        4.19298        0.01017
H          3.65045        5.20629        0.31995
C          5.61938        2.60048       -0.63226
H          6.67316        2.38311       -0.81584
C          5.24538        3.86988       -0.21043
F          6.18126        4.80109       -0.02643
H         -0.68113       -0.02047       -2.39406
C         -2.68219        0.77776       -2.59019
H         -3.50515        1.18083       -1.98471
H         -3.05236       -0.10634       -3.12927
H         -0.99716        1.35713       -1.35590
H         -2.42607        1.53092       -3.35121
H         -2.68693       -2.13331       -1.90062
H         -2.47039       -2.90094       -0.33707
C         -4.30366       -1.82558       -0.49935
C         -4.78202       -2.19885        0.76546
H         -4.08866       -2.62271        1.49747
C         -5.22872       -1.32782       -1.42552
H         -4.89437       -1.04716       -2.42528
C         -6.12376       -2.05621        1.11041
H         -6.49730       -2.34735        2.09372
C         -6.57491       -1.18260       -1.10246
H         -7.29664       -0.79624       -1.82431
C         -7.00680       -1.54194        0.16832
F         -8.29246       -1.40276        0.48576
H         -2.99714       -0.38843        1.63942
H         -1.59209        0.66733        1.64703
C         -3.27760        1.49370        0.62247
C         -2.68211        2.72673        0.32202
H         -1.59977        2.84304        0.42535
C         -4.67120        1.39817        0.52715
H         -5.16512        0.46048        0.78335
C         -3.43698        3.81614       -0.10279
H         -2.97595        4.77626       -0.34101
C         -5.44366        2.47709        0.10676
H         -6.52970        2.40181        0.02822
C         -4.81451        3.67289       -0.21562
F         -5.54603        4.70778       -0.62543
