82
Cat035.ts34.5.log	Energy: -2100588.4246420
C         -0.14655       -2.01649       -2.92691
H         -0.86364       -1.85913       -3.73736
H          0.89581       -1.97934       -3.26315
C         -0.49947       -2.89890       -1.86301
H         -1.50884       -3.32012       -1.82608
H          0.25826       -3.59727       -1.48795
H          0.03892       -2.04437       -0.53451
Co        -0.60835       -0.95097       -1.28783
C          1.35308        1.45230       -2.70698
O          1.39258        1.16775        0.01056
O          2.62071       -0.46128       -1.56369
C         -1.76271        1.11840        1.15900
O         -3.00171       -1.28337        0.63233
O         -0.84367       -1.10722        1.99603
P         -1.50931       -0.59482        0.57718
P          1.12741        0.24305       -1.34647
C         -1.92905       -0.21644       -2.15016
O         -2.79526        0.23824       -2.76233
H          1.41300        0.83777       -3.61966
C          0.23922        2.47999       -2.81702
H          0.11510        3.04564       -1.88111
H         -0.72541        2.00602       -3.04686
H          2.34228        1.92505       -2.58911
H          0.45275        3.20474       -3.61713
C          2.55338        1.95540        0.21958
H          2.91975        1.70796        1.23091
H          3.34681        1.66390       -0.48792
C          2.26846        3.44194        0.12722
H          3.20091        3.97610        0.38336
H          2.04265        3.71298       -0.91803
C          1.13693        3.91088        1.02966
H          1.36614        3.63355        2.07414
H          0.22351        3.35400        0.76616
C          0.87366        5.40425        0.93329
H          1.76220        5.99055        1.21835
H          0.60571        5.69466       -0.09557
H          0.04661        5.71333        1.59025
C          2.89098       -1.78478       -1.14245
H          2.29411       -2.03681       -0.24929
H          2.59335       -2.48869       -1.93927
C          4.36801       -1.93912       -0.84952
H          4.56466       -3.01104       -0.66967
H          4.93619       -1.66920       -1.75681
C          4.86434       -1.11989        0.33296
H          4.28289       -1.39036        1.23124
H          4.64681       -0.05689        0.14486
C          6.34802       -1.30079        0.60667
H          6.59083       -2.35291        0.82767
H          6.95423       -1.00116       -0.26343
H          6.67844       -0.69682        1.46542
H         -0.73843        1.47244        1.35399
C         -2.47649        2.03856        0.18555
H         -3.46268        1.64968       -0.10898
H         -1.88843        2.16983       -0.73318
H         -2.27365        1.06443        2.13411
H         -2.62563        3.03366        0.63155
C         -3.82881       -1.30616        1.78533
H         -4.23236       -2.33048        1.85386
H         -3.22729       -1.13321        2.69386
C         -4.96759       -0.30924        1.68033
H         -5.61511       -0.43926        2.56591
H         -4.56788        0.71710        1.74705
C         -5.78653       -0.45161        0.40510
H         -6.22252       -1.46566        0.36594
H         -5.10608       -0.38650       -0.45966
C         -6.88523        0.59084        0.28307
H         -7.59421        0.53350        1.12516
H         -6.46625        1.61040        0.27615
H         -7.46095        0.46497       -0.64622
C          0.10402       -2.14305        2.13567
H         -0.24231       -2.79151        2.95869
H          0.14049       -2.76129        1.22172
C          1.47097       -1.56562        2.43906
H          2.20201       -2.39305        2.47714
H          1.75882       -0.91874        1.59365
C          1.52437       -0.75758        3.72708
H          1.24848       -1.40599        4.57785
H          0.74946        0.02479        3.67797
C          2.88457       -0.12825        3.97832
H          3.67666       -0.89179        4.04660
H          3.16174        0.55536        3.15975
H          2.89966        0.45088        4.91403
