90
Cat032.ts34.5.log	Energy: -2010442.4615625
C          0.37232        2.40378       -1.32144
H          0.23953        3.27473       -0.67291
H          1.28900        2.44340       -1.92123
C         -0.78713        1.79803       -1.88572
H         -1.77842        2.17765       -1.61260
H         -0.74592        1.48563       -2.93708
H         -0.54238        0.20094       -1.65045
Co        -0.01272        0.69271       -0.35320
C          1.48162       -2.08636       -1.78210
C          3.10479        0.26096       -1.66277
C          2.55358       -1.23241        0.73430
C         -1.11131       -1.95432        1.44899
C         -2.73689        0.40677        1.62676
C         -2.78893       -1.16326       -0.82535
P         -1.62582       -0.48257        0.44800
P          1.70430       -0.55191       -0.76471
C          0.38651        1.40741        1.16506
O          0.69800        1.84968        2.18952
H          0.82942       -2.75332       -1.19227
C          0.86986       -1.83306       -3.14997
H          1.51929       -1.20017       -3.77472
H         -0.10130       -1.32193       -3.05962
H          2.45118       -2.60146       -1.88455
H          0.70752       -2.77573       -3.69508
H          3.84327       -0.49155       -1.99024
H          2.66821        0.69317       -2.57948
C          3.76988        1.35989       -0.84514
H          2.98825        1.98488       -0.38030
H          4.33226        0.91135       -0.00758
C          4.70694        2.23875       -1.66098
H          4.13859        2.70383       -2.48745
H          5.47686        1.60991       -2.14501
C          5.38429        3.32794       -0.84129
H          4.60874        3.94540       -0.35482
H          5.95117        2.85989       -0.01685
C          6.30866        4.21499       -1.65935
H          6.78269        4.99108       -1.03940
H          5.76008        4.72479       -2.46781
H          7.11372        3.62753       -2.12996
H          2.72685       -0.36175        1.38955
H          1.79272       -1.83479        1.25808
C          3.83552       -2.03281        0.56077
H          3.64779       -2.92277       -0.06434
H          4.58390       -1.43366        0.01360
C          4.43634       -2.47915        1.88755
H          3.69274       -3.08155        2.44095
H          4.62573       -1.59079        2.51726
C          5.72399       -3.27732        1.73855
H          5.53000       -4.16228        1.10648
H          6.46164       -2.67145        1.18273
C          6.31996       -3.71737        3.06597
H          7.24893       -4.29066        2.92575
H          5.61755       -4.35433        3.62751
H          6.55694       -2.85064        3.70383
H         -0.45025       -1.52523        2.22132
C         -2.15225       -2.86469        2.08126
H         -2.73072       -3.41321        1.32370
H         -2.86368       -2.30805        2.70958
H         -0.44656       -2.53191        0.78540
H         -1.66793       -3.61586        2.72499
H         -3.56995       -0.23884        1.95069
H         -2.11813        0.60822        2.51858
C         -3.25341        1.71955        1.05695
H         -2.38804        2.30702        0.70641
H         -3.86493        1.52324        0.15719
C         -4.06868        2.53582        2.04842
H         -3.45401        2.73260        2.94557
H         -4.93070        1.93962        2.40055
C         -4.56621        3.85660        1.47797
H         -3.70008        4.44207        1.12230
H         -5.17760        3.65523        0.58015
C         -5.37016        4.68066        2.47045
H         -5.71481        5.62803        2.02882
H         -4.77061        4.92790        3.36132
H         -6.26081        4.13184        2.81715
H         -2.81060       -0.40912       -1.62874
H         -2.26788       -2.03507       -1.26012
C         -4.21432       -1.52409       -0.43033
H         -4.22028       -2.23687        0.40906
H         -4.73319       -0.62346       -0.06032
C         -5.01150       -2.10989       -1.58851
H         -4.50505       -3.02064       -1.95764
H         -4.99929       -1.39980       -2.43555
C         -6.45259       -2.44368       -1.22879
H         -6.45864       -3.14914       -0.37882
H         -6.95308       -1.53064       -0.86026
C         -7.24480       -3.02988       -2.38612
H         -8.28103       -3.25957       -2.09525
H         -6.78722       -3.96350       -2.75130
H         -7.28543       -2.33065       -3.23683
