80
Cat020.ts34.5.log	Energy: -2335010.6758850
C          0.75068       -2.89375        2.16622
H          0.89312       -3.83609        1.62973
H          1.61166       -2.59516        2.77337
C         -0.55700       -2.54426        2.59277
H         -1.40860       -3.16747        2.30244
H         -0.68706       -2.09219        3.58245
H         -0.65438       -0.92580        2.17156
Co         0.01162       -1.45501        0.96235
C          1.28188        1.38721        2.31581
O          3.09734       -0.10780        1.36658
O          1.47365        0.90128       -0.38998
C         -1.57251       -0.04106       -1.66230
O         -3.09458       -0.88834        0.42457
O         -1.60639        1.16335        0.78387
P         -1.53954       -0.36669        0.12175
P          1.46116        0.07723        1.07148
C          0.29671       -2.40601       -0.46915
O          0.49744       -3.00564       -1.43367
H          0.30004        1.85723        2.17021
H          1.30051        0.89994        3.30186
H          2.09610        2.12154        2.26104
C          3.99064       -0.86589        0.66094
C          3.69514       -2.15103        0.21294
H          2.71383       -2.57102        0.42582
C          5.25070       -0.28409        0.43763
C          5.54671        1.08928        0.95435
H          4.86988        1.83509        0.50963
H          5.40203        1.14016        2.04464
H          6.58038        1.38108        0.72441
C          4.65072       -2.87073       -0.50174
H          4.40954       -3.87382       -0.86073
C          6.19024       -1.03137       -0.27641
H          7.17412       -0.59215       -0.46327
C          5.90006       -2.31031       -0.75342
H          6.65330       -2.86839       -1.31396
C          2.39371        1.81188       -0.83629
C          2.40694        3.11182       -0.32410
H          1.67322        3.38943        0.43327
C          3.26583        1.42901       -1.86933
C          3.21509        0.06158       -2.48164
H          4.11470       -0.51975       -2.22616
H          2.34458       -0.50620       -2.13248
H          3.16881        0.13362       -3.57907
C          3.33134        4.03931       -0.79566
H          3.34058        5.05251       -0.38738
C          4.18271        2.38397       -2.32448
H          4.87477        2.10131       -3.12276
C          4.23226        3.66982       -1.79319
H          4.96390        4.38863       -2.16880
H         -1.62366       -0.99975       -2.19750
H         -2.42046        0.58667       -1.96607
H         -0.61720        0.44857       -1.90043
C         -4.07264       -1.11468       -0.51410
C         -4.97382       -0.09811       -0.82947
H         -4.86799        0.87396       -0.34520
C         -4.16923       -2.38803       -1.09701
C         -3.19068       -3.46878       -0.74979
H         -2.28105       -3.40821       -1.37013
H         -2.86433       -3.38684        0.29604
H         -3.62912       -4.46310       -0.91253
C         -5.98998       -0.33703       -1.75073
H         -6.69352        0.46141       -1.99718
C         -5.20335       -2.59985       -2.01545
H         -5.29972       -3.58656       -2.47688
C         -6.10464       -1.59102       -2.34755
H         -6.90079       -1.78739       -3.06916
C         -2.62129        2.06654        0.61020
C         -2.62075        2.91276       -0.49727
H         -1.80307        2.84061       -1.21639
C         -3.61324        2.15281        1.60118
C         -3.56210        1.25872        2.80091
H         -4.34074        1.52791        3.52710
H         -3.69908        0.20651        2.50856
H         -2.58102        1.32384        3.29661
C         -3.64864        3.83907       -0.66150
H         -3.65216        4.49773       -1.53283
C         -4.62942        3.09476        1.41352
H         -5.41490        3.17597        2.16970
C         -4.66086        3.92325        0.29185
H         -5.47121        4.64560        0.17134
