74
Cat050.ts34.5.log	Energy: -3438986.1183267
C         -2.58936       -3.18777        0.44631
H         -3.53680       -2.71232        0.18048
H         -2.48215       -4.21914        0.10068
C         -1.91025       -2.78984        1.61182
H         -2.39053       -2.05868        2.27007
H         -1.27473       -3.50314        2.14523
H         -0.96139       -1.37477        1.22167
Co        -0.94629       -2.08966       -0.07736
C          1.88676       -2.39495        1.76970
O          2.07016       -2.41425       -0.94885
O          1.59261       -0.20647        0.18355
C         -0.79831        0.17188       -2.56211
O         -3.16162        0.02045       -1.43322
O         -1.27678        1.04518        0.01532
P         -1.57268       -0.28639       -0.96699
P          1.06993       -1.80033        0.24382
C         -0.75695       -3.17261       -1.42601
O         -0.64047       -3.86515       -2.33537
H          1.37069       -1.89744        2.60720
C          1.79110       -3.90945        1.88395
H          2.31880       -4.40827        1.05766
H          0.74525       -4.24562        1.84027
H          2.93161       -2.04669        1.79144
H          2.22736       -4.26039        2.83052
C          3.35551       -1.99282       -1.13460
C          4.41751       -2.64813       -0.50999
H          4.21773       -3.51011        0.12818
C          3.60698       -0.90648       -1.97571
H          2.76588       -0.40956       -2.46055
C          5.72451       -2.20857       -0.70744
H          6.56076       -2.71398       -0.22204
C          4.90938       -0.46456       -2.17882
H          5.11408        0.38598       -2.83078
C          5.96446       -1.11300       -1.53510
Cl         7.58668       -0.55611       -1.77352
C          2.11846        0.51251        1.21917
C          3.50126        0.66958        1.32708
H          4.15459        0.18825        0.59691
C          1.26298        1.13070        2.13330
H          0.18506        1.01738        2.00152
C          4.03108        1.44002        2.35826
H          5.10987        1.57235        2.45419
C          1.79166        1.89829        3.16646
H          1.13561        2.39139        3.88544
C          3.17417        2.04720        3.27596
Cl         3.83398        3.00260        4.56157
H         -0.70685       -0.79698       -3.08110
C         -1.45325        1.20104       -3.47031
H         -1.45248        2.20761       -3.03248
H         -2.49588        0.92737       -3.68136
H          0.23231        0.45438       -2.28437
H         -0.91140        1.25105       -4.42710
C         -4.21378       -0.28680       -0.62833
C         -5.34959       -0.84135       -1.22270
H         -5.34562       -1.01554       -2.30002
C         -4.19217       -0.05285        0.75082
H         -3.30943        0.39381        1.21087
C         -6.45309       -1.17630       -0.44658
H         -7.34197       -1.61447       -0.90316
C         -5.29292       -0.39896        1.53070
H         -5.28274       -0.22834        2.60844
C         -6.41821       -0.96093        0.93178
Cl        -7.78710       -1.38981        1.90357
C         -1.25635        2.34520       -0.40618
C         -2.44373        3.06452       -0.55081
H         -3.39821        2.57589       -0.34947
C         -0.02648        2.95677       -0.65334
H          0.88847        2.37760       -0.52080
C         -2.40173        4.39251       -0.96424
H         -3.32185        4.96584       -1.08724
C          0.01821        4.28484       -1.06559
H          0.97273        4.77482       -1.26368
C         -1.17121        4.99562       -1.22469
Cl        -1.11939        6.64822       -1.74211
