74
Cat046.ts34.5.log	Energy: -2285697.4800446
C         -0.28163       -3.36992       -1.39336
H          0.03709       -4.33314       -0.98554
H         -1.36185       -3.31269       -1.57093
C          0.59319       -2.67047       -2.27294
H          1.60607       -3.04760       -2.44339
H          0.17124       -2.18476       -3.16075
H          0.37470       -1.11156       -1.69489
Co         0.56192       -1.82112       -0.42568
C         -2.45752       -2.04876        1.18426
O         -0.98115        0.21252        1.45070
O         -2.19187       -0.22461       -0.78881
C          2.17326        0.62544        1.32041
O          3.54600       -0.88751       -0.48782
O          2.05457        0.91309       -1.34467
P          2.00979       -0.33351       -0.22519
P         -1.21528       -1.01149        0.32198
C          1.28538       -2.90162        0.74246
O          1.74551       -3.63753        1.49905
H         -2.84146       -2.75953        0.43450
C         -1.86377       -2.78304        2.37597
H         -1.42598       -2.08285        3.10418
H         -1.06562       -3.47333        2.06842
H         -3.31113       -1.41678        1.47755
H         -2.63600       -3.37019        2.89496
C         -1.91580        1.13097        1.83428
C         -2.75946        0.88233        2.91850
H         -2.67278       -0.05993        3.46200
C         -1.99004        2.34248        1.14520
H         -1.32129        2.51266        0.30181
C         -3.69579        1.84452        3.29518
H         -4.35837        1.64768        4.14140
C         -2.92491        3.29836        1.53225
H         -2.98183        4.24240        0.98493
C         -3.78637        3.05156        2.60238
H         -4.52219        3.80142        2.90098
C         -3.52027       -0.41973       -1.03915
C         -4.49274        0.34212       -0.38813
H         -4.18753        1.08435        0.35009
C         -3.89343       -1.36317       -1.99984
H         -3.11351       -1.93395       -2.50899
C         -5.83738        0.14475       -0.69689
H         -6.59517        0.74238       -0.18446
C         -5.24026       -1.55287       -2.29940
H         -5.52631       -2.29247       -3.05114
C         -6.21802       -0.80195       -1.64722
H         -7.27396       -0.95180       -1.88246
H          1.30812        1.30737        1.32702
C          2.16975       -0.23553        2.57255
H          2.98055       -0.97867        2.56509
H          1.21517       -0.77141        2.66820
H          3.08611        1.23797        1.23975
H          2.29588        0.39068        3.46810
C          4.69631       -0.18379       -0.23847
C          5.52160       -0.62049        0.79877
H          5.21628       -1.49126        1.38234
C          5.06269        0.91178       -1.02287
H          4.40615        1.22504       -1.83436
C          6.71371        0.05033        1.06039
H          7.35901       -0.29436        1.87199
C          6.25595        1.57746       -0.74774
H          6.54356        2.43537       -1.36053
C          7.08318        1.15419        0.29205
H          8.01765        1.68003        0.49968
C          1.10574        1.88724       -1.47714
C          1.34252        3.14513       -0.91523
H          2.25901        3.30380       -0.34383
C         -0.05053        1.65996       -2.22585
H         -0.22648        0.67467       -2.65636
C          0.42411        4.17428       -1.11068
H          0.61679        5.15769       -0.67541
C         -0.96799        2.69232       -2.40712
H         -1.87698        2.50375       -2.98256
C         -0.73395        3.95226       -1.85692
H         -1.45395        4.75964       -2.00769
