80
Cat010.ts34.5.log	Energy: -2334926.4595522
C         -0.46973       -2.83584       -1.55797
H         -0.31953       -3.90722       -1.39580
H         -1.48626       -2.57806       -1.87480
C          0.62317       -2.05773       -2.02403
H          1.61207       -2.51336       -2.14045
H          0.43540       -1.28967       -2.78372
H          0.52117       -0.67884       -1.03981
Co         0.25855       -1.73749       -0.04234
C         -1.68029       -0.48293        2.42334
C         -1.74823        1.06087        0.01970
C         -3.14333       -1.40992        0.20941
C          2.14504       -1.01310        2.70130
C          3.51052       -0.88205        0.23834
C          1.63800        1.16559        0.89737
P          1.82627       -0.65406        0.92774
P         -1.50925       -0.66182        0.59797
C          0.36684       -3.13763        0.97448
O          0.39802       -4.05572        1.67892
H         -1.61468       -1.49162        2.85541
H         -0.84559        0.11748        2.81449
H         -2.63672       -0.02795        2.72041
C         -1.67754        1.31700       -1.36040
H         -1.48940        0.48868       -2.04956
C         -1.97464        2.14227        0.87018
H         -2.02759        1.99391        1.94948
C         -1.83882        2.59690       -1.86502
H         -1.78791        2.79727       -2.93708
C         -2.12770        3.44005        0.37990
H         -2.27880        4.25810        1.08381
C         -2.05721        3.67418       -0.99335
O         -2.16683        4.89840       -1.55911
C         -2.53013        5.97664       -0.73969
H         -1.77913        6.16808        0.04636
H         -2.60039        6.85771       -1.39033
H         -3.50915        5.80639       -0.25841
C         -3.27562       -2.80470        0.31140
H         -2.40285       -3.40783        0.57490
C         -4.26790       -0.66736       -0.15385
H         -4.19410        0.41889       -0.24689
C         -4.49056       -3.42770        0.07752
H         -4.59960       -4.51089        0.15853
C         -5.49495       -1.28285       -0.40785
H         -6.34818       -0.66823       -0.69639
C         -5.61328       -2.67127       -0.28943
O         -6.75045       -3.36102       -0.51127
C         -7.90110       -2.66007       -0.88731
H         -7.76123       -2.11989       -1.84063
H         -8.69667       -3.40506       -1.01610
H         -8.21348       -1.93569       -0.11404
H          2.42597       -2.07311        2.77312
H          2.96094       -0.39662        3.10575
H          1.23028       -0.86656        3.29300
C          4.50978        0.10052        0.31108
H          4.28259        1.07478        0.75208
C          3.82819       -2.11112       -0.34054
H          3.04831       -2.87505       -0.40679
C          5.78251       -0.14421       -0.18009
H          6.56667        0.61411       -0.13477
C          5.10705       -2.37589       -0.82964
H          5.31816       -3.34917       -1.27327
C          6.09360       -1.38635       -0.75388
O          7.35445       -1.53316       -1.20523
C          7.72569       -2.75135       -1.78645
H          7.12779       -2.97629       -2.68736
H          8.77971       -2.65401       -2.07601
H          7.62692       -3.59225       -1.07738
C          1.47206        1.96300        2.03685
H          1.51388        1.51867        3.03371
C          1.58507        1.79224       -0.35178
H          1.69799        1.19245       -1.25902
C          1.24693        3.33104        1.92852
H          1.10559        3.95399        2.81380
C          1.38142        3.16019       -0.47674
H          1.33644        3.60245       -1.47142
C          1.19445        3.94040        0.67022
O          0.94988        5.26732        0.64409
C          1.04409        5.93668       -0.58625
H          0.28304        5.58799       -1.30502
H          0.87648        7.00109       -0.37701
H          2.04495        5.81620       -1.03650
