86
Cat049.ts34.5.log	Energy: -2384306.5744332
C          0.11019       -3.43133        0.37065
H          1.04888       -3.77247        0.81836
H         -0.78012       -3.89863        0.80084
C          0.07833       -3.01374       -0.97622
H          0.98076       -3.12742       -1.58740
H         -0.84385       -3.12366       -1.55688
H          0.57797       -1.38075       -1.02792
Co        -0.09705       -1.40441        0.28750
C         -0.82437        0.95583       -2.05495
O         -2.82712       -0.44696       -1.37616
O         -1.88076        1.11314        0.48046
C          1.21641        0.80526        2.41872
O          3.08299       -0.63848        1.33360
O          1.84676        0.91771       -0.30314
P          1.51781       -0.20143        0.90712
P         -1.38466       -0.03209       -0.62798
C         -0.95249       -1.53522        1.79124
O         -1.47445       -1.62197        2.81318
H          0.00915        1.56932       -1.68183
C         -0.39228        0.10317       -3.23692
H         -1.22210       -0.52053       -3.60112
H          0.44339       -0.56108       -2.96965
H         -1.65951        1.61305       -2.33781
H         -0.05567        0.74007       -4.06859
C         -3.84053       -1.21546       -0.87481
C         -3.60643       -2.39336       -0.16722
H         -2.57757       -2.70580        0.00417
C         -5.14675       -0.77091       -1.14287
C         -5.36944        0.47013       -1.95004
H         -4.91103        1.34788       -1.47072
H         -4.90994        0.37798       -2.94660
H         -6.44235        0.66723       -2.07796
C         -4.68144       -3.13009        0.32660
H         -4.49238       -4.04591        0.89125
C         -6.20360       -1.53257       -0.63899
H         -7.22648       -1.19810       -0.83283
C         -5.98405       -2.69626        0.09838
H         -6.83165       -3.26633        0.48495
C         -2.94092        1.97771        0.38879
C         -2.87957        3.10280       -0.43324
H         -1.97417        3.29335       -1.01022
C         -4.05620        1.73402        1.20911
C         -4.07794        0.56553        2.14389
H         -4.10271       -0.39104        1.59998
H         -3.17664        0.54388        2.77333
H         -4.96161        0.60439        2.79464
C         -3.96013        3.98080       -0.49417
H         -3.91012        4.85699       -1.14457
C         -5.12323        2.63398        1.12996
H         -6.00145        2.45674        1.75655
C         -5.09071        3.74003        0.28216
H         -5.94339        4.42128        0.24043
H          0.51541        0.20057        3.01450
C          2.39294        1.22607        3.28475
H          3.15111        1.79028        2.72689
H          2.89325        0.34574        3.71001
H          0.61406        1.65823        2.06173
H          2.04033        1.85464        4.11708
C          3.96222       -1.33319        0.55500
C          3.57472       -2.45246       -0.17929
H          2.53819       -2.77676       -0.12463
C          5.29236       -0.87884        0.54209
C          5.69396        0.30940        1.35907
H          5.14921        1.21192        1.04211
H          5.46037        0.15475        2.42349
H          6.77021        0.50569        1.26215
C          4.50514       -3.12533       -0.96889
H          4.19291       -3.99974       -1.54468
C          6.20367       -1.57347       -0.25730
H          7.24123       -1.22925       -0.28373
C          5.82361       -2.68113       -1.01530
H          6.56013       -3.19950       -1.63304
C          2.86907        1.81820       -0.42025
C          2.94104        2.94224        0.40225
H          2.17095        3.10016        1.15713
C          3.78985        1.62567       -1.46565
C          3.63821        0.47873       -2.41546
H          3.73761       -0.49021       -1.90492
H          2.64233        0.49034       -2.88426
H          4.39709        0.52569       -3.20773
C          3.98035        3.85711        0.24646
H          4.03624        4.72952        0.90150
C          4.82189        2.55917       -1.59946
H          5.55307        2.41651       -2.39974
C          4.93407        3.65739       -0.74835
H          5.75519        4.36612       -0.87587
