88
Cat070.ts34.5.log	Energy: -3398141.7877574
C          1.32258       -1.30386       -3.14370
H          1.26982       -0.76092       -4.09204
H          2.33160       -1.64330       -2.88510
C          0.20957       -2.09553       -2.74967
H         -0.71106       -2.07685       -3.34313
H          0.39919       -3.08479       -2.31575
H          0.11684       -1.72244       -1.12047
Co         0.32351       -0.36930       -1.67261
C          2.02318       -1.27856        1.18334
C          3.59410        0.19623       -0.74668
C          1.60047        1.51270        0.76782
C         -1.83158        1.69070       -0.06063
C         -3.04543       -0.54068       -1.41279
C         -1.56960       -1.01303        0.98192
P         -1.49048       -0.04327       -0.57341
P          1.85905       -0.04949       -0.17762
C          0.23659        1.09537       -2.59776
O          0.21542        2.08943       -3.18990
H          2.78785       -0.96466        1.91319
H          1.05622       -1.24904        1.70970
C          2.26789       -2.70135        0.70769
H          1.48105       -2.96617       -0.01936
H          3.22379       -2.76841        0.15910
C          2.25071       -3.69730        1.85947
H          1.36068       -3.50536        2.48413
H          3.11891       -3.51653        2.51902
C          2.23691       -5.15409        1.42172
H          1.37346       -5.31545        0.75131
H          3.13173       -5.36621        0.81028
C          2.16308       -6.12299        2.59102
H          2.12800       -7.16989        2.25370
H          1.26565       -5.93554        3.20299
H          3.03697       -6.01615        3.25365
C          3.80836        0.67185       -2.04524
H          2.95011        0.83774       -2.69982
C          4.70690       -0.03243        0.07197
H          4.57788       -0.39748        1.09300
C          5.09305        0.92919       -2.51601
H          5.25455        1.30502       -3.52756
C          5.99813        0.20462       -0.38846
H          6.86385        0.02199        0.25025
C          6.18370        0.68890       -1.68320
Cl         7.78748        0.98950       -2.26087
C          1.27166        1.54433        2.12763
H          1.29793        0.63350        2.72644
C          1.57538        2.72042        0.05304
H          1.82637        2.72889       -1.01021
C          0.86934        2.72884        2.74540
H          0.59176        2.74217        3.80095
C          1.19062        3.91050        0.65725
H          1.15436        4.84050        0.08786
C          0.81090        3.90280        2.00078
Cl         0.24277        5.36180        2.74274
H         -0.98650        1.96964        0.58915
H         -1.68637        2.28230       -0.97944
C         -3.15626        2.04622        0.59462
H         -3.98247        1.88808       -0.11844
H         -3.36298        1.37311        1.44452
C         -3.15618        3.48953        1.08319
H         -2.98379        4.16240        0.22364
H         -2.29072        3.64704        1.75218
C         -4.42823        3.90523        1.80641
H         -5.29575        3.75421        1.13983
H         -4.59143        3.23060        2.66591
C         -4.39022        5.34720        2.28692
H         -5.30507        5.62040        2.83412
H         -4.28672        6.04566        1.44104
H         -3.53234        5.51946        2.95684
C         -3.09030       -0.47317       -2.80916
H         -2.18907       -0.17472       -3.35175
C         -4.19205       -0.94565       -0.71796
H         -4.17510       -1.01483        0.37245
C         -4.25551       -0.78393       -3.50428
H         -4.29228       -0.72821       -4.59339
C         -5.36048       -1.27053       -1.39997
H         -6.25458       -1.58943       -0.86177
C         -5.38519       -1.18424       -2.79230
Cl        -6.83573       -1.58802       -3.64554
C         -1.44855       -0.44478        2.25312
H         -1.43226        0.63902        2.37438
C         -1.58435       -2.41260        0.87564
H         -1.68052       -2.87858       -0.10882
C         -1.30738       -1.24578        3.38775
H         -1.19380       -0.79819        4.37653
C         -1.45443       -3.22282        1.99501
H         -1.45345       -4.31023        1.90379
C         -1.29660       -2.63056        3.24975
Cl        -1.05709       -3.63539        4.63897
