70
Cat041.ts34.5.log	Energy: -3250242.1053015
C          0.26103       -3.49996        1.03875
H          0.19131       -4.30676        0.30352
H          1.13488       -3.57478        1.69418
C         -0.93921       -2.94503        1.54838
H         -1.90655       -3.28179        1.16293
H         -0.98645       -2.68814        2.61316
H         -0.72566       -1.27669        1.43365
Co        -0.07198       -1.70391        0.17059
C          1.79381       -0.05973        2.58424
C          3.30189       -1.08786        0.41896
C          1.69719        1.18044        0.00863
C         -1.62418       -0.09736       -2.44166
C         -3.30030       -1.03184       -0.34913
C         -1.65761        1.27365        0.10987
P         -1.59143       -0.41126       -0.61685
P          1.60144       -0.47938        0.79211
C          0.37779       -2.34197       -1.37341
O          0.69631       -2.74163       -2.41060
H          0.89352        0.51079        2.86678
C          1.93754       -1.29612        3.45621
H          2.81541       -1.89254        3.16316
H          1.05269       -1.94405        3.38297
H          2.66219        0.60727        2.71353
H          2.06219       -1.01713        4.51332
C          3.49597       -2.41359        0.02381
H          2.62920       -3.06742       -0.08682
C          4.41961       -0.25097        0.54014
H          4.28964        0.79668        0.82578
C          4.77345       -2.90474       -0.23831
H          4.92324       -3.93961       -0.54998
C          5.70050       -0.72497        0.28157
H          6.57078       -0.07263        0.37036
C          5.86915       -2.05576       -0.10537
Cl         7.46128       -2.65256       -0.43143
C          1.65987        2.38629        0.71409
H          1.60475        2.39352        1.80332
C          1.75652        1.22741       -1.39230
H          1.79301        0.29342       -1.96112
C          1.66022        3.61015        0.04669
H          1.59542        4.54688        0.60279
C          1.76685        2.43943       -2.07167
H          1.81124        2.47267       -3.16170
C          1.70328        3.62873       -1.34298
Cl         1.62829        5.14417       -2.18076
H         -1.37994       -1.06719       -2.90149
C         -2.90867        0.45917       -3.03491
H         -3.23231        1.39059       -2.54754
H         -3.73345       -0.26093       -2.93437
H         -0.75405        0.54789       -2.64939
H         -2.77675        0.67008       -4.10746
C         -3.54751       -2.37068       -0.68037
H         -2.71950       -2.99401       -1.03130
C         -4.36041       -0.24693        0.11425
H         -4.19393        0.80160        0.37089
C         -4.82193       -2.91497       -0.56594
H         -5.01459       -3.95625       -0.82932
C         -5.63897       -0.78361        0.25044
H         -6.46598       -0.17273        0.61615
C         -5.86314       -2.11516       -0.09329
Cl        -7.45005       -2.78667        0.07076
C         -1.53083        2.44388       -0.64429
H         -1.43664        2.39986       -1.72929
C         -1.74532        1.39081        1.50492
H         -1.83440        0.48913        2.11744
C         -1.48113        3.69487       -0.03384
H         -1.34541        4.59821       -0.63059
C         -1.70606        2.63177        2.12998
H         -1.76969        2.71601        3.21617
C         -1.56171        3.78108        1.35196
Cl        -1.43113        5.32670        2.12187
