64
Cat063.ts34.5.log	Energy: -1952670.0829724
C         -1.74061       -2.98198       -1.39787
H         -1.22591       -3.93617       -1.54006
H         -2.63791       -3.03673       -0.77519
C         -1.65345       -2.00222       -2.41750
H         -1.02832       -2.18819       -3.29640
H         -2.54351       -1.40887       -2.65372
H         -1.33357       -0.57421       -1.53484
Co        -0.47679       -1.52807       -0.80488
C         -1.82623        0.77689        1.34472
O         -2.87531       -1.71107        1.26335
O         -0.53769       -1.39434        2.35419
C          2.14637        0.24744        0.29346
O          1.95052        0.04965       -2.32302
O          0.17379        1.49281       -1.16750
P          0.90649        0.01393       -1.03933
P         -1.41003       -0.98418        1.00276
C          0.70940       -2.74108       -0.41058
O          1.47706       -3.54501       -0.10724
H         -2.23973        0.90387        2.35877
H         -0.87096        1.32777        1.31674
C         -2.77431        1.35069        0.30244
H         -2.35096        1.16008       -0.69694
H         -3.73599        0.81029        0.34266
C         -3.00674        2.84486        0.46538
H         -2.03094        3.36349        0.43340
H         -3.42500        3.05337        1.46764
C         -3.92275        3.43323       -0.59825
H         -3.49743        3.21775       -1.59441
H         -4.89380        2.90784       -0.57005
C         -4.14450        4.92934       -0.44694
H         -4.80797        5.32491       -1.23094
H         -3.19283        5.48208       -0.50697
H         -4.60094        5.16973        0.52695
C         -3.55442       -1.69931        2.49014
H         -2.98630       -2.23480        3.26923
H         -3.76824       -0.67467        2.84540
H         -4.51433       -2.21595        2.34601
C         -0.46311       -0.69655        3.56959
H          0.00992        0.29341        3.44867
H         -1.44657       -0.55300        4.04883
H          0.16309       -1.29261        4.24945
H          1.61750        0.79860        1.09192
H          2.30507       -0.76468        0.70117
C          3.48982        0.88617       -0.03084
H          3.95244        0.33326       -0.86345
H          3.35454        1.91582       -0.39878
C          4.42832        0.90191        1.16788
H          4.56741       -0.13128        1.53503
H          3.95414        1.45220        2.00173
C          5.78716        1.51798        0.86539
H          6.25319        0.96707        0.02947
H          5.64279        2.54947        0.49730
C          6.72677        1.52773        2.06024
H          7.69929        1.97811        1.80998
H          6.91780        0.50595        2.42587
H          6.30077        2.10139        2.89930
C          1.54601       -0.49922       -3.55597
H          1.19176       -1.53468       -3.42671
H          0.73784        0.09178       -4.01990
H          2.41976       -0.49108       -4.22232
C          0.88317        2.69180       -1.35968
H          1.33068        3.05429       -0.41769
H          1.68039        2.57583       -2.11162
H          0.16705        3.44792       -1.71322
