68
Cat019.ts34.5.log	Energy: -2485371.3441280
C          1.28790        1.04480        3.61244
H          1.11630        0.42219        4.49464
H          2.32419        1.38481        3.51162
C          0.24043        1.89174        3.15729
H         -0.74572        1.83298        3.62773
H          0.48801        2.90589        2.82225
H          0.36388        1.66630        1.52224
Co         0.45862        0.26039        1.95722
C          3.83175        0.06163        1.34435
O          2.11681       -1.52588       -0.01909
O          2.27467        0.86710       -0.69797
C         -0.91110       -0.65522       -0.98573
O         -2.53296       -0.67274        1.18485
O         -1.79428        1.59493        0.25535
P         -1.15546        0.09983        0.64831
P          2.11922       -0.04291        0.73002
C          0.18905       -1.25758        2.77008
O          0.04083       -2.28023        3.27777
H          4.01559        1.09047        1.68678
H          3.93030       -0.61210        2.20814
H          4.56715       -0.20772        0.57305
C          3.16919       -2.08337       -0.69610
C          3.78885       -3.20491       -0.14293
H          3.43240       -3.58280        0.81722
C          3.59343       -1.58060       -1.92820
H          3.09677       -0.70383       -2.34334
C          4.83656       -3.82741       -0.81530
H          5.33504       -4.70730       -0.40478
C          4.64513       -2.19846       -2.60066
H          4.99727       -1.82760       -3.56501
C          5.25417       -3.31344       -2.03738
F          6.25895       -3.90395       -2.68360
C          2.36301        2.23042       -0.65613
C          3.62065        2.83813       -0.70071
H          4.51142        2.20988       -0.75774
C          1.20970        3.01961       -0.60923
H          0.22671        2.54829       -0.58041
C          3.73123        4.22608       -0.69177
H          4.70309        4.72111       -0.73254
C          1.31614        4.40827       -0.59592
H          0.42844        5.04228       -0.55909
C          2.57509        4.99526       -0.63373
F          2.67678        6.32370       -0.62186
H         -0.56982       -1.68978       -0.83861
H         -1.81546       -0.64790       -1.60893
H         -0.09548       -0.10217       -1.47388
C         -3.10487       -1.78398        0.62135
C         -2.70067       -3.04965        1.05053
H         -1.92573       -3.13090        1.81514
C         -4.10591       -1.65411       -0.34283
H         -4.41895       -0.65887       -0.66163
C         -3.29135       -4.18838        0.50982
H         -2.99349       -5.18874        0.82875
C         -4.70007       -2.79151       -0.88376
H         -5.48561       -2.71685       -1.63777
C         -4.28373       -4.04531       -0.45282
F         -4.84972       -5.13388       -0.97236
C         -2.97112        1.76677       -0.42023
C         -4.16925        1.83683        0.29359
H         -4.14483        1.71803        1.37738
C         -2.97093        1.91048       -1.80855
H         -2.02519        1.87087       -2.35206
C         -5.36978        2.03885       -0.38070
H         -6.31996        2.09505        0.15328
C         -4.17033        2.11058       -2.48831
H         -4.19771        2.22758       -3.57304
C         -5.35607        2.16872       -1.76542
F         -6.50391        2.35918       -2.41271
