42
Cat030.ts34.5.log	Energy: -1616051.2404555
C          1.50024        2.28726       -0.45238
H          1.33641        3.15672        0.19079
H          2.55808        2.01388       -0.54365
C          0.65937        2.11975       -1.59711
H         -0.18592        2.80155       -1.74286
H          1.13011        1.85050       -2.55146
H          0.34919        0.54096       -1.56486
Co         0.19629        0.81680       -0.10522
C          2.39324       -1.82136       -0.70803
C          3.01866       -0.14031        1.50770
C          0.92173       -2.00050        1.69752
C         -2.70008       -0.62475        0.94669
C         -2.79897        0.76276       -1.57485
C         -1.54764       -1.77630       -1.42902
P         -1.64554       -0.18793       -0.50724
P          1.56907       -0.72357        0.53688
C         -0.36369        1.58198        1.34588
O         -0.71171        2.05939        2.34104
H          1.59145       -2.43893       -1.14723
C          3.11102       -1.04645       -1.80069
H          3.94301       -0.44850       -1.39708
H          2.41865       -0.35341       -2.30292
H          3.08188       -2.51184       -0.18953
H          3.53069       -1.72055       -2.56307
H          3.61769        0.55593        0.90441
H          2.65063        0.41523        2.38285
H          3.65812       -0.97227        1.84345
H          1.70077       -2.71085        2.01802
H          0.50886       -1.49544        2.58343
H          0.10664       -2.56345        1.21940
H         -2.87312        0.32901        1.47216
C         -4.00881       -1.35475        0.69551
H         -3.85082       -2.33664        0.22397
H         -4.68530       -0.77746        0.04695
H         -2.04531       -1.20772        1.61534
H         -4.54175       -1.53216        1.64251
H         -3.06365        1.69841       -1.06123
H         -2.27446        1.02640       -2.50466
H         -3.71565        0.20675       -1.82431
H         -0.97820       -1.60465       -2.35384
H         -1.00029       -2.51882       -0.82995
H         -2.53720       -2.18297       -1.68580
