84
Cat025.ts34.5.log	Energy: -1961148.8089711
C         -0.62544       -3.11417       -0.72966
H         -0.92047       -3.83165        0.04176
H         -1.33289       -3.06800       -1.56586
C          0.76689       -2.95621       -1.00819
H          1.49717       -3.47903       -0.38056
H          1.08797       -2.91807       -2.05688
H          0.92453       -1.34862       -1.14218
Co         0.00626       -1.38017        0.03468
C         -0.98726        0.77337       -2.49648
C         -3.06373       -0.76191       -1.35947
C         -1.92590        1.38949        0.15779
C          1.19496        0.65716        2.48164
C          3.16266       -0.89552        1.14131
C          1.99107        1.36409       -0.19301
P          1.52186       -0.09694        0.83859
P         -1.42071       -0.04534       -0.90340
C         -0.62366       -1.79183        1.59409
O         -1.07883       -2.03692        2.63035
H         -0.08670        1.38915       -2.36009
H         -0.74413       -0.01370       -3.22588
H         -1.79629        1.39820       -2.90561
H         -2.86356       -1.54050       -2.11540
H         -3.66696        0.01306       -1.85973
C         -3.79459       -1.36746       -0.17166
H         -3.11544       -2.07538        0.33008
H         -4.01273       -0.58177        0.57559
C         -5.10163       -2.08587       -0.51404
H         -4.86512       -2.85727       -1.27155
C         -5.65134       -2.79374        0.71891
H         -4.91688       -3.49892        1.13758
H         -6.56897       -3.35634        0.48639
H         -5.89850       -2.06553        1.50961
C         -6.14320       -1.14528       -1.11041
H         -7.07913       -1.67912       -1.33762
H         -5.79551       -0.67826       -2.04422
H         -6.38704       -0.33539       -0.40142
H         -1.00571        1.97475        0.33045
H         -2.17132        0.93867        1.13286
C         -3.04257        2.30138       -0.32463
H         -2.80765        2.67268       -1.33684
H         -3.98061        1.72616       -0.42320
C         -3.31222        3.50859        0.57979
H         -2.36342        4.07129        0.67246
C         -4.34283        4.43130       -0.06064
H         -4.02076        4.76497       -1.05957
H         -4.51877        5.32786        0.55386
H         -5.31007        3.91453       -0.17849
C         -3.75074        3.09488        1.98036
H         -3.95866        3.97571        2.60730
H         -2.98627        2.49586        2.49712
H         -4.67376        2.49198        1.93736
H          0.99279       -0.14642        3.20409
H          2.03631        1.26508        2.84521
H          0.29274        1.28316        2.41923
H          2.94174       -1.79223        1.74468
H          3.77770       -0.22816        1.76760
C          3.89345       -1.28740       -0.13482
H          3.18202       -1.78239       -0.81502
H          4.23621       -0.37912       -0.66370
C          5.09627       -2.21080        0.07185
H          4.72964       -3.11415        0.59530
C          5.66288       -2.64752       -1.27394
H          4.89577       -3.14044       -1.89135
H          6.50050       -3.35128       -1.14999
H          6.03934       -1.77933       -1.84082
C          6.17599       -1.57181        0.93792
H          7.03722       -2.24639        1.06238
H          5.80608       -1.32082        1.94336
H          6.54723       -0.64137        0.47493
H          1.06502        1.94569       -0.33817
H          2.22940        0.94023       -1.18148
C          3.10559        2.26998        0.30611
H          2.82921        2.68514        1.28976
H          4.02681        1.68339        0.47354
C          3.44135        3.43529       -0.63089
H          2.50493        3.99766       -0.80908
C          4.43590        4.37976        0.03435
H          4.05109        4.76180        0.99283
H          4.66098        5.24545       -0.60756
H          5.38813        3.86271        0.24036
C          3.96717        2.95916       -1.98078
H          4.21524        3.81109       -2.63239
H          3.23615        2.33712       -2.51857
H          4.88534        2.36087       -1.85238
