76
Cat015.ts34.5.log	Energy: -2146262.9418792
C          1.28478       -2.01533        1.92666
H          1.44251       -3.09770        1.93768
H          2.19081       -1.43883        2.14402
C          0.02019       -1.50673        2.32359
H         -0.79957       -2.19358        2.55811
H         -0.01344       -0.60143        2.94139
H         -0.28325       -0.33236        1.13033
Co         0.26346       -1.42507        0.29949
C          1.70795        0.01685       -2.41991
C          1.45778        1.75088       -0.14958
C          3.44915       -0.27863       -0.23589
C         -1.79217       -1.75162       -2.38699
C         -3.10636       -1.49239        0.09018
C         -1.84628        0.79995       -1.05754
P         -1.54533       -0.98112       -0.73806
P          1.65727       -0.02068       -0.58056
C          0.53705       -2.95461       -0.47169
O          0.75265       -3.95703       -1.00833
H          1.91485       -1.00797       -2.75967
H          0.72564        0.32362       -2.80825
H          2.48786        0.68734       -2.80979
C          1.32883        2.77647       -1.08622
H          1.34755        2.56124       -2.15530
C          1.40415        2.07011        1.21560
H          1.48663        1.26449        1.95192
C          1.15738        4.09431       -0.65747
H          1.04519        4.89170       -1.39628
C          1.25090        3.38241        1.66006
C          1.21048        3.70879        3.12478
H          0.29715        4.26745        3.38459
H          1.23860        2.79902        3.74058
H          2.06641        4.33836        3.41663
C          1.12835        4.39669        0.69792
H          1.00015        5.43356        1.02218
C          4.35524        0.77126       -0.06197
H          4.00874        1.80667       -0.09606
C          3.91493       -1.59819       -0.17911
H          3.20065       -2.41820       -0.29402
C          5.70372        0.49286        0.16088
H          6.41004        1.31492        0.30297
C          5.26451       -1.89115        0.02939
C          5.74983       -3.31128        0.07531
H          4.91624       -4.02246       -0.00694
H          6.45206       -3.51844       -0.74831
H          6.28403       -3.52093        1.01540
C          6.15447       -0.82276        0.20422
H          7.21406       -1.02836        0.38227
H         -1.78781       -2.84073       -2.24024
H         -2.74619       -1.45369       -2.84517
H         -0.95445       -1.49781       -3.05221
C         -3.08454       -2.66332        0.85198
H         -2.14007       -3.20143        0.97003
C         -4.30744       -0.78940       -0.05604
H         -4.32597        0.12952       -0.64899
C         -4.25683       -3.12553        1.44736
H         -4.24137       -4.04479        2.03821
C         -5.48747       -1.23355        0.54747
C         -6.76675       -0.45970        0.40780
H         -7.05392        0.00647        1.36456
H         -6.67227        0.34211       -0.33784
H         -7.59980       -1.11221        0.10392
C         -5.44463       -2.41502        1.29973
H         -6.35806       -2.78007        1.77831
C         -1.93498        1.34536       -2.34058
H         -1.86577        0.70760       -3.22387
C         -1.94642        1.65437        0.04873
H         -1.85997        1.23432        1.05542
C         -2.11625        2.72032       -2.50281
H         -2.17475        3.14359       -3.50872
C         -2.15353        3.02542       -0.09568
C         -2.31126        3.91181        1.10409
H         -1.89532        3.44033        2.00520
H         -1.80272        4.87572        0.95821
H         -3.37584        4.12469        1.29817
C         -2.22830        3.55018       -1.39383
H         -2.37115        4.62561       -1.53131
