76
Cat014.ts34.5.log	Energy: -2146253.7049900
C          0.81917       -3.00322       -0.67579
H          0.36033       -3.36131       -1.60223
H          1.91425       -3.03347       -0.67409
C          0.12350       -3.19156        0.54204
H         -0.87776       -3.63758        0.53694
H          0.70295       -3.46686        1.43057
H          0.21479       -1.67597        1.31695
Co         0.03155       -1.23666       -0.08225
C          1.64978        0.58676        2.27687
C          3.28744       -0.98735        0.49883
C          2.08586        1.57689       -0.30314
C         -2.01369       -0.89936        2.50812
C         -2.06624        1.36993        0.71846
C         -3.40257       -1.14454        0.05443
P         -1.82212       -0.45513        0.72980
P          1.72424       -0.02765        0.54024
C         -0.19056       -0.90964       -1.76467
O         -0.26909       -0.72549       -2.90393
H          0.82087        1.30756        2.30583
H          1.41676       -0.23743        2.96541
H          2.56809        1.09522        2.60329
C          3.78535       -1.54863        1.68227
H          3.30299       -1.32391        2.63546
C          3.91364       -1.30413       -0.72900
C          3.42477       -0.75861       -2.03688
H          3.63641        0.31801       -2.13384
H          2.33542       -0.87082       -2.13326
H          3.90176       -1.27649       -2.88014
C          4.89555       -2.38895        1.67859
H          5.26409       -2.80909        2.61744
C          5.03191       -2.14543       -0.70929
H          5.52069       -2.38531       -1.65774
C          5.52794       -2.68488        0.47477
H          6.40124       -3.34101        0.45360
C          1.00402        2.11638       -1.00738
H          0.07924        1.54061       -1.04915
C          3.29101        2.31249       -0.21585
C          4.51911        1.83331        0.50527
H          5.04144        1.04806       -0.06330
H          4.29329        1.39554        1.48599
H          5.22248        2.66435        0.65466
C          1.07923        3.35751       -1.63097
H          0.21086        3.75245       -2.16267
C          3.35021        3.55349       -0.86335
H          4.28006        4.12658       -0.80697
C          2.26662        4.07785       -1.56381
H          2.35381        5.05235       -2.05074
H         -1.13331       -0.56441        3.07260
H         -2.92684       -0.50528        2.97409
H         -2.03723       -1.99749        2.54430
C         -1.74516        2.09917        1.87177
H         -1.46522        1.57271        2.78589
C         -2.44494        2.07020       -0.44975
C         -2.83766        1.38174       -1.72409
H         -3.85454        0.96312       -1.65784
H         -2.17508        0.54400       -1.97231
H         -2.81803        2.08698       -2.56644
C         -1.77628        3.49045        1.89090
H         -1.51363        4.02890        2.80440
C         -2.47707        3.46932       -0.40614
H         -2.77041        4.01083       -1.30996
C         -2.14308        4.18233        0.74117
H         -2.16917        5.27435        0.73478
C         -3.24182       -2.23545       -0.80766
H         -2.22100       -2.54473       -1.04703
C         -4.70619       -0.69733        0.37174
C         -5.00193        0.49634        1.23553
H         -4.84622        1.43593        0.68176
H         -4.35822        0.55862        2.12087
H         -6.04774        0.47573        1.57243
C         -4.33252       -2.89960       -1.36081
H         -4.17553       -3.74691       -2.03212
C         -5.78992       -1.38025       -0.19609
H         -6.80227       -1.04159        0.04201
C         -5.61726       -2.46631       -1.05035
H         -6.49010       -2.97044       -1.47251
