88
Cat067.ts34.5.log	Energy: -2244852.1438285
C          1.73572        0.74775        2.99107
H          1.52009        0.27309        3.95297
H          2.79472        0.71608        2.71171
C          0.95491        1.86965        2.59605
H          0.09729        2.17964        3.20303
H          1.46587        2.72737        2.14108
H          0.69336        1.53272        0.99015
Co         0.43909        0.19338        1.56198
C          2.34093        0.45399       -1.28316
C          3.24978       -1.55518        0.57717
C          0.91911       -2.01285       -0.92454
C         -2.39337       -0.97542        0.08689
C         -2.61998        1.59385        1.34685
C         -1.17576        1.37042       -1.11168
P         -1.39438        0.51740        0.49900
P          1.72334       -0.66707        0.04260
C         -0.13911       -1.13215        2.51897
O         -0.49924       -2.04658        3.13103
H          2.89634       -0.10276       -2.05590
H          1.43768        0.85954       -1.76736
C          3.17565        1.59872       -0.73101
H          2.60880        2.09197        0.07710
H          4.09230        1.20268       -0.25958
C          3.54296        2.62827       -1.78939
H          2.61737        2.99136       -2.27194
H          4.12769        2.14158       -2.59146
C          4.32521        3.81210       -1.23917
H          3.73723        4.28726       -0.43372
H          5.24757        3.44488       -0.75542
C          4.67650        4.84725       -2.29538
H          5.23763        5.69228       -1.86836
H          3.76968        5.25602       -2.77023
H          5.29437        4.40815       -3.09531
C          3.33798       -2.00588        1.89817
C          4.30107       -1.83884       -0.30414
C          5.49325       -2.99879        1.44786
C          5.41709       -2.54993        0.12897
C          4.44903       -2.72993        2.32958
H          2.52295       -1.78118        2.58914
H          4.49972       -3.07927        3.36374
H          6.36823       -3.55911        1.78636
H          6.23078       -2.76098       -0.56944
H          4.24955       -1.51202       -1.34532
C          0.64116       -1.92441       -2.29288
C          0.47933       -3.14596       -0.22236
C         -0.52124       -4.04551       -2.22923
C         -0.22767       -4.15414       -0.86783
C         -0.08121       -2.93079       -2.93801
H          0.97163       -1.05897       -2.86861
H         -0.29717       -2.83997       -4.00580
H         -1.08716       -4.83161       -2.73467
H         -0.56328       -5.02667       -0.30225
H          0.67787       -3.22913        0.84916
H         -1.76329       -1.57661       -0.59005
H         -2.43199       -1.55373        1.02445
C         -3.79173       -0.78087       -0.47723
H         -4.43110       -0.30038        0.28186
H         -3.77004       -0.08191       -1.33105
C         -4.41985       -2.09485       -0.92236
H         -4.43586       -2.79836       -0.07016
H         -3.77197       -2.56853       -1.68300
C         -5.82772       -1.93948       -1.47929
H         -6.46922       -1.46836       -0.71368
H         -5.80491       -1.22951       -2.32531
C         -6.44687       -3.25272       -1.92963
H         -7.46283       -3.10947       -2.32792
H         -6.51473       -3.96873       -1.09476
H         -5.84351       -3.72817       -2.71988
C         -2.67361        1.54174        2.74423
C         -3.51900        2.42008        0.66087
C         -4.51104        3.10813        2.75471
C         -4.45659        3.17512        1.36260
C         -3.62000        2.28723        3.44451
H         -1.95606        0.90942        3.27453
H         -3.65439        2.23422        4.53540
H         -5.24693        3.70145        3.30295
H         -5.15114        3.81936        0.81775
H         -3.48365        2.47655       -0.42973
C         -0.68801        2.68655       -1.10067
C         -1.34588        0.72989       -2.34283
C         -0.53604        2.68709       -3.51112
C         -1.02271        1.38312       -3.53414
C         -0.37645        3.34134       -2.28727
H         -0.54352        3.19921       -0.14559
H          0.00152        4.36620       -2.25828
H         -0.28184        3.19637       -4.44361
H         -1.15370        0.86305       -4.48634
H         -1.71266       -0.29629       -2.38383
