104
Cat085.ts34.5.log	Energy: -2532211.5841181
C         -1.67015        2.40683       -2.07094
H         -2.00393        2.21380       -3.09349
H         -2.47590        2.71499       -1.39799
C         -0.35472        2.88388       -1.84593
H          0.34999        2.96983       -2.67827
H         -0.19011        3.65177       -1.08119
H          0.16540        1.94139       -0.57757
Co        -0.52334        0.89949       -1.37085
C         -1.26260        0.79909        1.97819
O         -3.30269        0.63024        0.37398
O         -1.64486       -1.40325        0.42215
C          1.55919       -1.77180       -1.51844
O          2.70513        0.61082       -1.48009
O          1.52889       -0.13229        0.69432
P          1.26697       -0.06270       -0.95916
P         -1.66489        0.26899        0.28167
C         -0.95500       -0.08187       -2.74750
O         -1.26987       -0.74695       -3.63494
H         -1.92765        0.31258        2.70760
H         -0.24116        0.41998        2.13873
C         -1.29171        2.31590        2.11060
H         -0.78631        2.76304        1.23588
H         -2.33593        2.66889        2.07063
C         -0.61393        2.82079        3.37559
H          0.43181        2.46205        3.38861
H         -1.09455        2.36926        4.26231
C         -0.63003        4.33739        3.50284
H         -0.18566        4.77722        2.59234
H         -1.67684        4.68841        3.52171
C          0.10789        4.85016        4.72856
H          0.07352        5.94815        4.79551
H          1.16857        4.55108        4.70893
H         -0.32827        4.44630        5.65639
C         -4.13683        0.54368       -0.70551
C         -4.04070       -0.49777       -1.62520
H         -3.28678       -1.27392       -1.48055
C         -5.11066        1.53348       -0.85138
H         -5.16599        2.33560       -0.11312
C         -4.89654       -0.54927       -2.73234
C         -4.74981       -1.65921       -3.73145
H         -3.72968       -1.67277       -4.14564
H         -4.92213       -2.64071       -3.26159
H         -5.46043       -1.55154       -4.56261
C         -5.97441        1.47442       -1.93886
H         -6.73846        2.24572       -2.06334
C         -5.86451        0.44824       -2.87853
H         -6.54066        0.42057       -3.73670
C         -2.15207       -2.20997        1.39888
C         -3.31191       -1.91128        2.11489
H         -3.84984       -0.98674        1.90106
C         -1.47337       -3.41113        1.62950
H         -0.58701       -3.63987        1.03493
C         -3.79154       -2.79600        3.08932
C         -5.03353       -2.45022        3.85908
H         -4.86545       -1.57699        4.51008
H         -5.86184       -2.19167        3.18152
H         -5.36000       -3.28481        4.49489
C         -1.95166       -4.29174        2.59243
H         -1.42410       -5.23163        2.77268
C         -3.09914       -3.98695        3.32451
H         -3.46718       -4.68583        4.07965
H          0.86269       -2.37122       -0.90526
H          1.14103       -1.79457       -2.53884
C          2.96601       -2.35406       -1.51711
H          3.63074       -1.69121       -2.09399
H          3.37154       -2.37757       -0.49552
C          3.00258       -3.76160       -2.09539
H          2.61991       -3.74918       -3.13243
H          2.30780       -4.40767       -1.52792
C          4.39400       -4.37872       -2.07213
H          5.08644       -3.72746       -2.63445
H          4.76616       -4.38137       -1.03218
C          4.44086       -5.78828       -2.63878
H          5.45836       -6.20660       -2.60640
H          4.10627       -5.80858       -3.68852
H          3.78373       -6.46812       -2.07271
C          2.94552        1.95453       -1.41540
C          2.69994        2.68657       -0.25016
H          2.30161        2.17665        0.62893
C          3.46479        2.58074       -2.54693
H          3.64853        1.98599       -3.44314
C          2.94596        4.06194       -0.20994
C          2.62528        4.85288        1.02552
H          2.54069        4.20523        1.90980
H          3.39170        5.61544        1.22824
H          1.66411        5.38199        0.91251
C          3.72757        3.94740       -2.50318
H          4.13625        4.44529       -3.38586
C          3.46644        4.68526       -1.35025
H          3.67055        5.75895       -1.33336
C          2.48542       -0.87179        1.33756
C          3.82504       -0.48786        1.30939
H          4.11391        0.40067        0.74535
C          2.07741       -1.99630        2.05488
H          1.01840       -2.25857        2.07755
C          4.79255       -1.25285        1.96960
C          6.24034       -0.86367        1.89316
H          6.66878       -1.14230        0.91622
H          6.37020        0.22311        2.00418
H          6.83475       -1.36294        2.67107
C          3.03707       -2.75486        2.71834
H          2.72994       -3.63921        3.28189
C          4.38286       -2.39291        2.67109
H          5.12744       -2.99856        3.19398
