52
Cat092.ts34.5.log	Energy: -1854072.7965111
C         -0.47676       -2.68719       -0.99699
H          0.15567       -3.48266       -0.59254
H         -1.55396       -2.84801       -0.90414
C          0.01279       -1.90586       -2.06399
H          1.01747       -2.09333       -2.45704
H         -0.69692       -1.58102       -2.83279
H         -0.03810       -0.27751       -1.63994
Co         0.07238       -0.86346       -0.27832
C         -2.15162        1.72579       -0.91138
O         -2.99578       -0.88198       -0.60242
O         -2.37990        0.57645        1.42948
C          2.06960        1.57507        1.18073
O          3.25267       -0.48787        0.04951
O          2.18014        1.35033       -1.39084
P          1.81536        0.31977       -0.14161
P         -1.79357        0.12286       -0.05525
C          0.33613       -1.69324        1.21149
O          0.50244       -2.28857        2.18741
H         -2.11764        1.42966       -1.97669
C         -3.50806        2.34847       -0.60096
H         -3.60239        3.31333       -1.12457
H         -4.34938        1.72096       -0.92028
H         -3.61010        2.53627        0.47785
C         -1.02508        2.71952       -0.64881
H         -0.04633        2.33075       -0.96031
H         -1.20785        3.65444       -1.20175
H         -0.97418        2.97146        0.42267
C         -4.36926       -0.80336       -0.30984
H         -4.56644       -0.18285        0.57832
H         -4.93196       -0.39120       -1.16398
H         -4.73876       -1.82256       -0.11573
C         -2.26333       -0.29903        2.52703
H         -2.50520       -1.33979        2.25366
H         -1.24781       -0.28319        2.95267
H         -2.97347        0.03813        3.29576
H          1.35206        2.36775        0.90958
C          1.67498        1.00724        2.53686
H          1.82963        1.76033        3.32493
H          0.61580        0.71471        2.54945
H          2.27838        0.12217        2.79230
C          3.47814        2.15563        1.17204
H          3.73603        2.55601        0.18220
H          3.55301        2.97134        1.90880
H          4.21729        1.38437        1.43166
C          3.41226       -1.83315       -0.31960
H          2.43262       -2.32776       -0.43439
H          3.96822       -1.91368       -1.26942
H          3.98270       -2.35253        0.46507
C          2.22956        0.89140       -2.71369
H          2.95209        0.06537       -2.83492
H          1.24071        0.54818       -3.06632
H          2.55483        1.73032       -3.34504
