96
Cat090.ts34.5.log	Energy: -2059740.9013546
C          0.62867       -1.34223       -2.66835
H          0.81018       -2.41929       -2.72731
H         -0.14092       -1.00322       -3.37388
C          1.72850       -0.48066       -2.38559
H          2.70990       -0.91210       -2.16567
H          1.81148        0.45804       -2.94777
H          1.07915        0.57525       -1.24685
Co         0.49571       -0.70022       -0.77550
C         -1.39670        1.52141       -2.44927
C         -2.80923       -0.86922       -1.54620
C         -2.19433        1.18595        0.36919
C          0.31258       -0.08989        2.63873
C          2.87601       -0.95339        1.63234
C          1.89038        1.73739        1.14277
P          1.36228       -0.03380        1.08452
P         -1.43591        0.26594       -1.05170
C          0.33208       -2.34149       -0.25712
O          0.22708       -3.45203        0.05733
H         -0.68996        1.04956       -3.15416
C         -2.69149        1.77811       -3.21150
H         -2.50801        2.49302       -4.03083
H         -3.09376        0.86119       -3.66485
H         -3.47679        2.20863       -2.57304
C         -0.75265        2.81743       -1.96832
H          0.18149        2.62057       -1.41924
H         -0.50777        3.46832       -2.82283
H         -1.42518        3.38622       -1.30669
H         -3.71012       -0.29666       -1.82040
H         -2.46128       -1.37670       -2.46189
C         -3.14952       -1.90367       -0.48287
H         -2.23690       -2.44795       -0.19337
H         -3.50583       -1.39721        0.43220
C         -4.20390       -2.90487       -0.93375
H         -3.85273       -3.41115       -1.85124
H         -5.12719       -2.36899       -1.22186
C         -4.53161       -3.94965        0.12382
H         -3.60278       -4.47523        0.40708
H         -4.87636       -3.43928        1.04100
C         -5.57702       -4.95802       -0.32418
H         -5.79141       -5.69881        0.46110
H         -5.24214       -5.50904       -1.21780
H         -6.52697       -4.46220       -0.58211
H         -2.20330        0.45533        1.19487
H         -1.45552        1.94825        0.66915
C         -3.57351        1.81452        0.23535
H         -3.55085        2.62339       -0.51335
H         -4.29389        1.07044       -0.14584
C         -4.09100        2.37462        1.55398
H         -3.36916        3.11541        1.94455
H         -4.12077        1.56443        2.30565
C         -5.46707        3.01690        1.44862
H         -5.43198        3.82499        0.69641
H         -6.18226        2.27389        1.05311
C         -5.97989        3.56867        2.76894
H         -6.97510        4.02575        2.66043
H         -5.30199        4.33935        3.17006
H         -6.05970        2.77500        3.52923
H         -0.37062        0.76600        2.49908
C         -0.52751       -1.35865        2.69871
H         -1.18612       -1.34249        3.58206
H         -1.15049       -1.46989        1.80150
H          0.10085       -2.26052        2.77101
C          1.08176        0.12019        3.93886
H          1.71036        1.02279        3.92685
H          0.37767        0.22449        4.78019
H          1.73057       -0.73943        4.16557
H          3.43096       -0.34526        2.36709
H          2.50773       -1.84319        2.17298
C          3.78427       -1.40576        0.49935
H          3.18208       -1.98928       -0.21589
H          4.14836       -0.53179       -0.06723
C          4.97195       -2.22919        0.97433
H          4.60454       -3.10391        1.54181
H          5.57156       -1.63869        1.69163
C          5.86766       -2.70489       -0.16112
H          5.26141       -3.29036       -0.87467
H          6.22846       -1.82794       -0.72777
C          7.05207       -3.53440        0.30739
H          7.67871       -3.86269       -0.53576
H          6.71915       -4.43685        0.84506
H          7.69434       -2.96143        0.99577
H          0.97118        2.31424        0.94016
H          2.20356        1.99207        2.16873
C          2.97365        2.13685        0.15290
H          3.92790        1.65822        0.43258
H          2.72115        1.74460       -0.84667
C          3.17471        3.64323        0.06459
H          3.41524        4.04527        1.06585
H          2.21938        4.11828       -0.22584
C          4.26017        4.05255       -0.92085
H          5.21308        3.57780       -0.62683
H          4.01675        3.63811       -1.91528
C          4.44778        5.55735       -1.02426
H          5.23761        5.82085       -1.74390
H          4.72576        5.99336       -0.05110
H          3.52009        6.05357       -1.35231
