72
Cat060.ts34.5.log	Energy: -1862543.3856134
C         -2.22601       -2.43873       -1.51388
H         -1.89814       -3.43383       -1.82853
H         -3.16958       -2.44827       -0.95677
C         -1.95434       -1.33391       -2.37144
H         -1.37320       -1.49092       -3.28623
H         -2.74466       -0.58654       -2.51732
H         -1.42062       -0.18958       -1.31874
Co        -0.72184       -1.36278       -0.74251
C         -1.72848        1.11640        1.42181
C         -3.16991       -1.34209        1.65699
C         -0.47525       -1.14555        2.64569
C          2.12532        0.18883        0.26865
C          2.23404       -0.95521       -2.36543
C          0.64931        1.44603       -1.93947
P          1.03301       -0.19814       -1.17929
P         -1.50096       -0.70464        1.16367
C          0.18028       -2.78989       -0.37348
O          0.78468       -3.72953       -0.06864
H         -2.06662        1.31623        2.45265
H         -0.72141        1.56058        1.32893
C         -2.67231        1.77059        0.42422
H         -2.41399        1.42902       -0.59398
H         -3.70431        1.42139        0.60330
C         -2.64071        3.29176        0.46610
H         -1.60652        3.63661        0.27864
H         -2.88933        3.64091        1.48494
C         -3.57795        3.94725       -0.53833
H         -3.32736        3.58623       -1.55175
H         -4.60984        3.60290       -0.34762
C         -3.53094        5.46626       -0.50909
H         -4.21802        5.90950       -1.24573
H         -2.51820        5.83884       -0.73298
H         -3.81089        5.85575        0.48302
H         -3.84388       -1.10459        0.81724
C         -3.17280       -2.83961        1.92524
H         -2.62072       -3.08835        2.84440
H         -2.69676       -3.38705        1.09784
H         -3.54467       -0.77948        2.52919
H         -4.19805       -3.22264        2.04359
H          0.50178       -0.66643        2.47340
C         -1.00255       -0.79991        4.02902
H         -1.96582       -1.28955        4.23811
H         -1.14702        0.28337        4.15887
H         -0.28432       -2.22757        2.55445
H         -0.29629       -1.12735        4.80826
H          1.60417        0.98600        0.82850
H          2.06296       -0.70743        0.90769
C          3.59084        0.55115        0.06199
H          4.11375       -0.29055       -0.42189
H          3.69263        1.40339       -0.62828
C          4.29607        0.88256        1.37094
H          4.18729        0.03228        2.06883
H          3.78341        1.73309        1.85706
C          5.77251        1.21297        1.20234
H          6.27967        0.36040        0.71687
H          5.87547        2.05920        0.49987
C          6.47071        1.54613        2.51087
H          7.53499        1.77976        2.35643
H          6.41463        0.70371        3.21897
H          6.00673        2.41734        3.00089
H          2.67305       -1.81001       -1.82320
C          1.57995       -1.43748       -3.64886
H          1.13442       -0.60690       -4.21925
H          0.77747       -2.15373       -3.42002
H          3.05796       -0.25400       -2.57544
H          2.31114       -1.93386       -4.30492
H         -0.03463        1.93177       -1.22373
C          1.77368        2.38745       -2.33660
H          2.50311        1.90552       -3.00554
H          2.32101        2.76567       -1.46103
H          0.01978        1.19905       -2.81070
H          1.37230        3.26311       -2.87056
