76
Cat096.ts34.5.log	Energy: -2146246.3387316
C         -0.29723       -2.56175       -2.00450
H         -0.17654       -3.59352       -1.66068
H         -1.19844       -2.40846       -2.61030
C          0.86826       -1.81014       -2.32330
H          1.85951       -2.23720       -2.13527
H          0.85267       -1.18270       -3.22350
H          0.50538       -0.34452       -1.63661
Co         0.06807       -1.22921       -0.54259
C         -2.22989        0.63634       -2.24095
C         -3.29498       -0.93814       -0.09309
C         -1.84144        1.34710        0.63991
C          1.71502        0.28166        2.21922
C          3.33088       -0.87988        0.15341
C          1.86674        1.54014       -0.38670
P          1.67356       -0.11220        0.39040
P         -1.74622       -0.04491       -0.56036
C         -0.22167       -2.45296        0.65348
O         -0.49244       -3.28431        1.40983
H         -2.21477       -0.30545       -2.82073
C         -3.63010        1.22453       -2.36788
H         -3.82190        1.50649       -3.41610
H         -4.40395        0.50502       -2.06798
H         -3.76374        2.12925       -1.75624
C         -1.15739        1.54207       -2.84057
H         -0.15190        1.11109       -2.73632
H         -1.35270        1.69478       -3.91386
H         -1.12419        2.53510       -2.36994
C         -3.39145       -2.30837       -0.35979
C         -4.38659       -0.29146        0.50378
C         -5.63398       -2.36072        0.53706
C         -5.54538       -0.99745        0.81782
C         -4.55411       -3.01351       -0.05349
H         -2.53709       -2.82593       -0.79814
H         -4.60890       -4.08385       -0.26637
H         -6.54224       -2.91480        0.78647
H         -6.38490       -0.47838        1.28709
H         -4.32856        0.77533        0.73144
C         -1.99689        2.70012        0.32263
C         -1.69819        0.99420        1.99195
C         -1.85086        3.31051        2.65937
C         -1.70873        1.96092        2.99165
C         -1.99857        3.67359        1.32377
H         -2.10833        3.01370       -0.71401
H         -2.11590        4.72541        1.05106
H         -1.85196        4.07301        3.44183
H         -1.59956        1.66104        4.03687
H         -1.57591       -0.06047        2.25633
H          0.80674        0.88986        2.36241
C          1.57006       -0.98734        3.04895
H          1.58771       -0.73395        4.12095
H          0.63378       -1.52136        2.84581
H          2.40298       -1.68441        2.86247
C          2.93012        1.08595        2.66306
H          3.08513        1.99152        2.05928
H          2.80329        1.40028        3.71181
H          3.84677        0.47940        2.60898
C          3.39703       -2.27797        0.11754
C          4.52020       -0.14472        0.05627
C          5.80078       -2.18980       -0.09050
C          5.74539       -0.79623       -0.06961
C          4.62397       -2.92999        0.00697
H          2.46544       -2.84843        0.16997
H          4.65827       -4.02194       -0.01403
H          6.76292       -2.69846       -0.18873
H          6.66439       -0.21031       -0.15011
H          4.48887        0.94680        0.07170
C          2.44951        1.63743       -1.65951
C          1.29724        2.68656        0.17744
C          1.90339        3.98825       -1.76851
C          1.31592        3.90055       -0.50912
C          2.47224        2.84991       -2.34184
H          2.88702        0.74935       -2.12337
H          2.93375        2.90597       -3.33077
H          1.91825        4.94009       -2.30471
H          0.85964        4.78139       -0.05083
H          0.81461        2.64243        1.15551
