102
Cat045.ts34.5.log	Energy: -2671470.8070566
C          0.24444       -3.02643       -1.58357
H          0.76672       -3.80518       -1.02394
H         -0.71223       -3.33032       -2.01730
C          0.99747       -1.99783       -2.18268
H          2.08592       -1.98136       -2.05890
H          0.66774       -1.59103       -3.14622
H          0.55090       -0.47190       -1.58112
Co         0.09210       -1.33532       -0.47017
C         -1.98671        0.26381       -2.63915
C         -3.45319       -0.89608       -0.53969
C         -1.83808        1.27123        0.16052
C          1.64072       -0.36055        2.41375
C          3.40321       -1.00425        0.33106
C          1.83493        1.47093        0.06366
P          1.68528       -0.30553        0.56546
P         -1.72840       -0.25654       -0.87656
C         -0.39032       -2.26224        0.89621
O         -0.69871       -2.89699        1.81733
H         -1.04642        0.72754       -2.96771
C         -2.33299       -0.94284       -3.49965
H         -3.29068       -1.39134       -3.19452
H         -1.56658       -1.72880       -3.43111
H         -2.77493        1.02619       -2.69090
H         -2.42270       -0.65138       -4.55806
C         -4.55166       -0.01625       -0.45231
O         -4.34939        1.25304       -0.86354
C         -5.20948        2.26960       -0.43689
H         -4.73281        3.21772       -0.71855
H         -6.20022        2.20816       -0.92129
H         -5.33863        2.25420        0.65875
C         -3.69700       -2.25532       -0.26054
O         -2.68865       -3.10954       -0.49725
C         -2.77172       -4.43302       -0.05677
H         -1.80164       -4.89284       -0.28418
H         -3.56658       -4.99265       -0.58127
H         -2.94117       -4.48865        1.03170
C         -4.93987       -2.69031        0.22297
H         -5.10454       -3.73948        0.46446
C         -5.79727       -0.43953        0.02924
H         -6.62864        0.26013        0.11034
C         -5.97106       -1.77297        0.37841
H         -6.93974       -2.11023        0.75560
C         -1.63345        2.58266       -0.29264
O         -1.21043        2.72370       -1.56581
C         -1.19200        3.99121       -2.15166
H         -0.87030        3.84874       -3.19163
H         -2.19367        4.45797       -2.14592
H         -0.47475        4.66378       -1.65363
C         -2.16449        1.09503        1.51985
O         -2.24265       -0.18272        1.93294
C         -2.60873       -0.48784        3.24503
H         -2.54749       -1.57970        3.32941
H         -3.63874       -0.15749        3.46744
H         -1.91725       -0.03580        3.97812
C         -2.41966        2.18410        2.36096
H         -2.71435        2.02958        3.39843
C         -1.88030        3.68334        0.54066
H         -1.74663        4.69887        0.17001
C         -2.29454        3.47228        1.85100
H         -2.50671        4.33033        2.49406
H          1.53882       -1.43865        2.61403
C          2.83708        0.20715        3.15571
H          3.03397        1.25155        2.87724
H          3.74742       -0.37066        2.93637
H          0.69592        0.11056        2.71433
H          2.67330        0.17072        4.24523
C          4.58157       -0.28079        0.05831
O          4.51535        1.05815        0.17558
C          5.58088        1.85876       -0.23698
H          5.23901        2.89753       -0.14053
H          6.47711        1.71275        0.39221
H          5.85440        1.67032       -1.29051
C          3.52720       -2.40747        0.42130
O          2.44347       -3.06347        0.87516
C          2.45078       -4.45592        0.99178
H          1.45569       -4.73283        1.36260
H          3.21498       -4.80177        1.71020
H          2.62415       -4.94919        0.01939
C          4.71804       -3.06895        0.09390
H          4.78322       -4.15510        0.14233
C          5.77719       -0.93091       -0.28010
H          6.67245       -0.35694       -0.51643
C          5.82708       -2.31927       -0.27671
H          6.75899       -2.82649       -0.53792
C          2.27080        1.74631       -1.24999
O          2.60424        0.66804       -1.98604
C          3.00968        0.82033       -3.31280
H          3.19145       -0.19040       -3.69937
H          2.22985        1.30509       -3.92611
H          3.94226        1.40671       -3.39389
C          1.46466        2.57112        0.85396
O          0.95881        2.31626        2.07804
C          0.88848        3.33904        3.02761
H          0.54691        2.87191        3.96060
H          0.16141        4.11665        2.74409
H          1.87658        3.80346        3.19553
C          1.61345        3.88721        0.38723
H          1.34068        4.72754        1.02379
C          2.39706        3.04937       -1.73576
H          2.75461        3.23593       -2.74759
C          2.08416        4.11508       -0.89687
H          2.19864        5.14035       -1.25792
