66
Cat053.ts34.5.log	Energy: -1813244.3404441
C         -0.59013        2.56243        1.09246
H         -0.38534        3.42064        0.44580
H         -1.58128        2.59530        1.55935
C          0.49067        1.99578        1.82739
H          1.50338        2.38909        1.68268
H          0.31026        1.70853        2.87125
H          0.30966        0.39028        1.60397
Co        -0.04282        0.83777        0.23237
C         -1.67777       -1.92735        1.52491
C         -3.31314        0.37240        1.08858
C         -2.38589       -1.18383       -1.14901
C          1.35509       -1.82782       -1.31477
C          2.93784        0.56797       -1.34216
C          2.67976       -0.92826        1.14523
P          1.69282       -0.31536       -0.30021
P         -1.77917       -0.43173        0.43231
C         -0.23876        1.50477       -1.34629
O         -0.41121        1.91239       -2.41686
H         -0.93747       -2.59893        1.05677
C         -1.27063       -1.61679        2.95570
H         -2.01221       -0.97745        3.45966
H         -0.30486       -1.08867        2.98517
H         -2.64305       -2.46013        1.50792
H         -1.17217       -2.53753        3.55123
H         -4.07537       -0.39011        1.32734
H         -3.02611        0.83959        2.04645
C         -3.87860        1.43216        0.15109
H         -4.27516        0.94643       -0.75668
H         -3.05519        2.08021       -0.19219
C         -4.97025        2.27359        0.79321
H         -5.81326        1.64977        1.13199
H         -4.58716        2.81569        1.67288
H         -5.36930        3.02090        0.09044
H         -2.47532       -0.34200       -1.85693
H         -1.54502       -1.78709       -1.53057
C         -3.66477       -2.00995       -1.13817
H         -4.49780       -1.40532       -0.74169
H         -3.55682       -2.86295       -0.44754
C         -4.03299       -2.52688       -2.52145
H         -4.18418       -1.69571       -3.22865
H         -3.23541       -3.16593       -2.93345
H         -4.95958       -3.12092       -2.50020
H          0.78792       -1.43994       -2.17813
C          2.49251       -2.72222       -1.78172
H          2.98192       -3.23595       -0.94156
H          3.26458       -2.16036       -2.32845
H          0.62595       -2.40775       -0.72490
H          2.11523       -3.50230       -2.46166
H          3.82165       -0.06568       -1.52558
H          2.44514        0.72414       -2.31796
C          3.34604        1.91327       -0.75682
H          3.82594        1.76050        0.22638
H          2.42918        2.49091       -0.55459
C          4.27871        2.70004       -1.66318
H          5.21256        2.14848       -1.85883
H          3.80455        2.90281       -2.63672
H          4.55086        3.66889       -1.21726
H          2.57438       -0.14857        1.91726
H          2.11786       -1.79701        1.53322
C          4.15426       -1.27053        0.97003
H          4.70103       -0.37193        0.63967
H          4.28858       -2.01247        0.16832
C          4.77854       -1.79246        2.25596
H          4.68642       -1.05613        3.07044
H          4.28433       -2.71776        2.59330
H          5.84880       -2.01398        2.12551
