84
Cat082.ts34.5.log	Energy: -1961143.4736597
C          2.31417       -0.28443        2.73647
H          2.22250       -1.05384        3.50868
H          3.33212       -0.18314        2.34367
C          1.51149        0.88799        2.84853
H          0.77708        0.96396        3.65719
H          1.97912        1.85765        2.63548
H          0.99257        1.09255        1.30008
Co         0.82669       -0.37639        1.39856
C          1.58060        0.85902       -1.72304
C          3.72982       -0.51113       -0.42586
C          1.51557       -1.99362       -1.51315
C         -1.91811       -0.79741       -0.54604
C         -2.47625       -0.29919        2.22498
C         -1.49271        1.88524        0.57456
P         -1.22171        0.09046        0.92519
P          1.87942       -0.49248       -0.48938
C          0.47194       -2.01600        1.81911
O          0.24573       -3.12970        2.04167
H          2.12724        0.65236       -2.65829
H          0.50537        0.80172       -1.96945
C          1.91453        2.25219       -1.21025
H          1.54369        2.35145       -0.17443
H          3.00965        2.37583       -1.14657
C          1.32335        3.36896       -2.05915
H          0.23108        3.21475       -2.14471
H          1.71194        3.30115       -3.09153
C          1.58562        4.76115       -1.50294
H          1.20911        4.80746       -0.46541
H          2.67542        4.92467       -1.43144
C          0.95123        5.87033       -2.32610
H          1.15960        6.86380       -1.90103
H         -0.14382        5.75329       -2.37482
H          1.32728        5.86585       -3.36188
H          4.14887       -0.33506       -1.43222
H          4.02082        0.35679        0.19090
C          4.29574       -1.78937        0.18150
H          4.12371       -2.63146       -0.51003
H          3.72925       -2.03318        1.09557
C          5.77926       -1.69038        0.49988
H          6.36993       -1.45937       -0.40140
H          5.97438       -0.89302        1.23511
H          6.16561       -2.63150        0.92015
H          1.67606       -2.85295       -0.83964
H          0.42761       -1.97094       -1.69109
C          2.25624       -2.19852       -2.82763
H          3.34476       -2.20120       -2.64938
H          2.06457       -1.34888       -3.50402
C          1.85648       -3.49256       -3.52180
H          2.07048       -4.36680       -2.88639
H          0.77762       -3.50730       -3.74573
H          2.39683       -3.62860       -4.47124
H         -1.48191       -0.29718       -1.42898
H         -1.45067       -1.79541       -0.51336
C         -3.42414       -0.95676       -0.71224
H         -3.82798       -1.54086        0.13138
H         -3.93051        0.02060       -0.66897
C         -3.79279       -1.65222       -2.01634
H         -3.27702       -2.62858       -2.06729
H         -3.40071       -1.06456       -2.86693
C         -5.29013       -1.86079       -2.19497
H         -5.67635       -2.44897       -1.34372
H         -5.80054       -0.88290       -2.13645
C         -5.65301       -2.55032       -3.50016
H         -6.74043       -2.68713       -3.59974
H         -5.18499       -3.54550       -3.56932
H         -5.31036       -1.96610       -4.36948
H         -3.47467        0.05360        1.91572
H         -2.52505       -1.40185        2.26187
C         -2.11184        0.23910        3.60048
H         -2.02771        1.33951        3.56062
H         -1.10622       -0.13123        3.85592
C         -3.11058       -0.15712        4.67593
H         -4.11969        0.22392        4.44997
H         -3.18398       -1.25295        4.76329
H         -2.81859        0.23650        5.66150
H         -1.12938        2.39892        1.48186
H         -0.75346        2.13312       -0.20465
C         -2.86327        2.41469        0.18070
H         -3.61921        2.10831        0.92348
H         -3.17476        1.96417       -0.77567
C         -2.86869        3.93092        0.04462
H         -2.60057        4.41690        0.99631
H         -2.13757        4.26422       -0.71006
H         -3.85719        4.30902       -0.25754
