120
Cat074.ts34.5.log	Energy: -2819370.8266357
C         -0.81686        2.85224       -1.67077
H         -0.18479        3.07103       -2.53407
H         -1.89235        2.93910       -1.85038
C         -0.29842        3.05824       -0.37806
H          0.73194        3.41038       -0.25740
H         -0.97153        3.41204        0.41230
H         -0.28300        1.60352        0.52831
Co        -0.29957        1.06726       -0.84898
C         -2.88324        0.89187        1.33172
C         -3.45000       -0.61950       -0.97097
C         -1.44287       -1.63525        0.68227
C          2.40797       -0.94615       -1.29317
C          3.05888        1.66216       -0.49210
C          1.78955       -0.09776        1.49565
P          1.68230        0.41617       -0.28142
P         -1.97066       -0.00277       -0.00903
C         -0.23860        0.37106       -2.42072
O         -0.18336       -0.08041       -3.48824
H         -3.53352        0.20287        1.88703
H         -2.11988        1.27118        2.02633
C         -3.68463        2.04097        0.73427
H         -3.05059        2.61967        0.04201
H         -4.50406        1.63598        0.11620
C         -4.25855        2.97450        1.78984
H         -3.43245        3.38689        2.39890
H         -4.88500        2.39430        2.49221
C         -5.07492        4.12016        1.20851
H         -4.44382        4.68677        0.50092
H         -5.89900        3.70375        0.60254
C         -5.63754        5.06112        2.26150
H         -6.22187        5.87772        1.81031
H         -4.83225        5.51952        2.85841
H         -6.29948        4.52648        2.96212
C         -4.29986       -1.61162       -0.44029
O         -4.13830       -1.91673        0.86435
C         -4.62378       -3.12969        1.36207
H         -4.20163       -3.24306        2.36930
H         -5.72604       -3.14039        1.43205
H         -4.29057       -3.98107        0.74445
C         -3.71057       -0.18822       -2.28657
O         -2.99730        0.85906       -2.73041
C         -3.04311        1.21772       -4.08005
H         -2.31408        2.02805       -4.20669
H         -4.04252        1.58381       -4.37542
H         -2.75294        0.37785       -4.73362
C         -4.68204       -0.81439       -3.08135
H         -4.85248       -0.49017       -4.10703
C         -5.27340       -2.24355       -1.22477
H         -5.90735       -3.02290       -0.80295
C         -5.44145       -1.84644       -2.54541
H         -6.19841       -2.33535       -3.16372
C         -1.31818       -1.94486        2.04484
O         -1.49427       -0.92926        2.91447
C         -1.60530       -1.19787        4.28017
H         -1.79987       -0.23546        4.77133
H         -2.44273       -1.88658        4.49381
H         -0.67443       -1.61885        4.69381
C         -1.15327       -2.65402       -0.24670
O         -1.19047       -2.28426       -1.53969
C         -0.92727       -3.20856       -2.55281
H         -0.95607       -2.64320       -3.49215
H         -1.68601       -4.01042       -2.58039
H          0.07414       -3.66108       -2.44163
C         -0.88030       -3.96480        0.16184
H         -0.69903       -4.75032       -0.57099
C         -1.04469       -3.25340        2.46803
H         -0.97940       -3.48917        3.52955
C         -0.85180       -4.25392        1.52187
H         -0.65703       -5.27760        1.85184
H          1.73853       -1.80920       -1.17635
H          2.28169       -0.58024       -2.32460
C          3.85961       -1.31403       -1.03679
H          4.50463       -0.46491       -1.31963
H          4.02726       -1.46988        0.04056
C          4.29298       -2.55529       -1.80326
H          4.14092       -2.39133       -2.88602
H          3.62843       -3.39811       -1.53705
C          5.73870       -2.95689       -1.54839
H          6.39979       -2.11290       -1.81361
H          5.88108       -3.11411       -0.46403
C          6.16695       -4.20236       -2.30747
H          7.21510       -4.46831       -2.10111
H          6.06822       -4.05979       -3.39581
H          5.54404       -5.07001       -2.03483
C          4.07339        1.96820        0.43696
O          4.19582        1.14908        1.49767
C          5.05096        1.47680        2.55028
H          4.88679        0.71783        3.32633
H          6.11219        1.45718        2.24397
H          4.82265        2.47216        2.97135
C          3.06833        2.38638       -1.70368
O          2.21928        1.95119       -2.65285
C          2.13374        2.60403       -3.88549
H          1.36714        2.06711       -4.45851
H          3.09087        2.56611       -4.43520
H          1.82782        3.65873       -3.77171
C          3.93573        3.46591       -1.91522
H          3.90723        4.02885       -2.84720
C          4.94119        3.05230        0.24142
H          5.70274        3.29297        0.98230
C          4.85077        3.80101       -0.92530
H          5.52852        4.64412       -1.07944
C          1.63212        0.90978        2.47159
O          1.50267        2.16254        1.99258
C          1.27603        3.22891        2.86433
H          1.16734        4.12340        2.23821
H          0.35222        3.08708        3.45237
H          2.12127        3.38026        3.55911
C          1.92998       -1.41582        1.96107
O          2.00057       -2.40122        1.04201
C          2.46937       -3.66395        1.41467
H          2.51479       -4.26118        0.49484
H          1.78786       -4.16749        2.11860
H          3.47910       -3.60483        1.85907
C          1.99348       -1.70015        3.33496
H          2.12419       -2.72607        3.67547
C          1.66231        0.63538        3.84034
H          1.55389        1.43441        4.57254
C          1.86463       -0.67575        4.26028
H          1.91225       -0.90140        5.32864
