48
Cat088.ts34.5.log	Energy: -1665348.9526943
C          1.19599        2.49762       -0.61607
H          0.88772        3.40897       -0.09532
H          2.28227        2.34180       -0.58800
C          0.48545        2.11735       -1.79881
H         -0.39924        2.69202       -2.09579
H          1.06643        1.79151       -2.67123
H          0.35294        0.50813       -1.58927
Co         0.01854        0.93953       -0.21018
C          3.03595       -0.62104       -0.58803
C          2.38029        0.33164        2.06904
C          1.22864       -2.06703        1.12349
C         -2.35868       -1.46055        0.60179
C         -3.23315        0.82284       -0.97015
C         -1.67065       -1.22218       -2.17355
P         -1.74656       -0.20762       -0.64418
P          1.57948       -0.34612        0.55863
C         -0.68299        1.80740        1.11426
O         -1.12243        2.40108        2.00514
H          3.25863        0.40076       -0.94474
C          4.29286       -1.18774        0.05839
H          5.09134       -1.30136       -0.69321
H          4.68431       -0.53858        0.85437
H          4.11577       -2.18577        0.49127
C          2.60520       -1.45153       -1.79189
H          1.68473       -1.05324       -2.24520
H          3.39127       -1.45623       -2.56363
H          2.41977       -2.50089       -1.50999
H          2.83088        1.30473        1.82432
H          1.59343        0.51323        2.81576
H          3.14476       -0.33017        2.50300
H          2.12737       -2.58688        1.49049
H          0.49281       -2.02505        1.93953
H          0.78898       -2.65095        0.30216
H         -1.59607       -2.25685        0.53457
C         -2.32178       -0.89136        2.01432
H         -2.61520       -1.65986        2.74735
H         -1.31821       -0.52824        2.27355
H         -3.01544       -0.04327        2.12926
C         -3.72039       -2.06615        0.28341
H         -3.77805       -2.47873       -0.73468
H         -3.94256       -2.88902        0.98191
H         -4.52501       -1.32277        0.39429
H         -3.49583        1.37340       -0.05473
H         -2.96452        1.56552       -1.73527
H         -4.10272        0.24422       -1.31652
H         -2.61516       -1.73981       -2.39684
H         -1.41794       -0.56043       -3.01460
H         -0.86284       -1.96180       -2.07291
