84
Cat062.ts34.5.log	Energy: -1961133.2289088
C          1.88097       -1.40080        2.72022
H          1.37961       -1.98415        3.49833
H          2.81020       -1.85806        2.36642
C          1.79262        0.01388        2.77178
H          1.19558        0.49252        3.55384
H          2.68831        0.59579        2.52104
H          1.38876        0.46811        1.19464
Co         0.57733       -0.75896        1.31717
C          1.93428        0.21202       -1.67633
C          3.27348       -1.98642       -0.36813
C          0.82301       -2.45115       -1.82977
C         -2.14710       -0.01367       -0.44630
C         -2.28994        0.77113        2.37364
C         -0.56465        2.30488        0.38215
P         -1.08091        0.59475        0.94602
P          1.55954       -1.23919       -0.57744
C         -0.47646       -2.05848        1.74777
O         -1.18455       -2.92322        2.05157
H          2.39291       -0.12778       -2.61955
H          0.95395        0.63835       -1.94954
C          2.78906        1.29256       -1.03159
H          2.40114        1.50596       -0.02038
H          3.81757        0.92278       -0.87735
C          2.83006        2.58782       -1.83005
H          1.79531        2.94294       -1.99405
H          3.23969        2.39336       -2.83797
C          3.63455        3.68951       -1.15490
H          3.22038        3.86703       -0.14624
H          4.66834        3.33628       -0.99306
C          3.65349        4.99228       -1.93751
H          4.24052        5.76826       -1.42330
H          2.63422        5.38650       -2.08036
H          4.09288        4.85140       -2.93821
H          3.71796       -1.34943        0.41755
C          3.17573       -3.40801        0.17808
H          4.15714       -3.74787        0.54613
H          2.45548       -3.47824        1.00540
H          2.86165       -4.11405       -0.60676
C          4.17784       -1.93975       -1.59304
H          4.38815       -0.91489       -1.92970
H          5.14667       -2.41460       -1.36600
H          3.74386       -2.49043       -2.44362
H          1.69597       -2.95015       -2.28589
C         -0.02430       -3.50922       -1.13409
H         -0.29124       -4.31036       -1.84285
H          0.48431       -3.96911       -0.27687
H         -0.96005       -3.07611       -0.75155
C          0.03126       -1.80331       -2.96068
H          0.64133       -1.13555       -3.58409
H         -0.37718       -2.58573       -3.62087
H         -0.82465       -1.22798       -2.57872
H         -1.58563        0.26123       -1.35591
H         -2.06395       -1.10991       -0.38209
C         -3.61509        0.35652       -0.60555
H         -4.17757        0.04448        0.29047
H         -3.74370        1.44762       -0.68299
C         -4.23519       -0.30338       -1.83106
H         -4.10230       -1.39841       -1.76134
H         -3.67626        0.00581       -2.73368
C         -5.71148        0.01739       -2.01733
H         -6.26481       -0.29273       -1.11320
H         -5.83815        1.11278       -2.08248
C         -6.32250       -0.64243       -3.24290
H         -7.38894       -0.39300       -3.35068
H         -6.24151       -1.73993       -3.18715
H         -5.81121       -0.32281       -4.16531
H         -2.87076       -0.16491        2.26860
C         -1.57656        0.70262        3.71958
H         -2.31360        0.63806        4.53622
H         -0.91639       -0.17293        3.77246
H         -0.96417        1.60040        3.89802
C         -3.25839        1.94902        2.34291
H         -3.82145        2.02523        1.40521
H         -3.99074        1.84905        3.16094
H         -2.73246        2.90246        2.50117
H          0.22577        2.02806       -0.33555
C         -1.57589        3.15782       -0.37447
H         -1.07948        4.07076       -0.74382
H         -1.98472        2.63654       -1.25153
H         -2.41673        3.47767        0.25604
C          0.10948        3.08698        1.50448
H          0.85607        2.47763        2.03249
H          0.62297        3.97220        1.09513
H         -0.61953        3.44730        2.24614
