88
Cat069.ts34.5.log	Energy: -2493829.9682437
C          1.53229       -1.24026       -3.01216
H          1.41480       -0.76902       -3.99257
H          2.57612       -1.41794       -2.73049
C          0.53987       -2.16228       -2.57785
H         -0.36460       -2.31375       -3.17689
H          0.86631       -3.08841       -2.08870
H          0.36636       -1.71656       -0.98401
Co         0.38368       -0.37780       -1.60858
C          2.20364       -0.89880        1.25859
C          3.49643        0.79504       -0.68541
C          1.30401        1.77832        0.78360
C         -2.11528        1.40551       -0.14890
C         -2.90206       -1.09144       -1.33878
C         -1.41701       -1.11777        1.09898
P         -1.46867       -0.27662       -0.53117
P          1.82525        0.26161       -0.12205
C          0.08203        1.00186       -2.61580
O         -0.08643        1.94986       -3.25831
H          2.87008       -0.43341        2.00376
H          1.23967       -1.07862        1.76148
C          2.77020       -2.22343        0.77272
H          2.10099       -2.62997       -0.00495
H          3.74366       -2.05889        0.27811
C          2.92466       -3.24442        1.89049
H          1.95265       -3.36677        2.40213
H          3.61766       -2.85176        2.65687
C          3.41644       -4.60216        1.41011
H          2.72123       -4.98368        0.64099
H          4.38614       -4.47674        0.89678
C          3.55443       -5.62321        2.52759
H          3.90552       -6.59560        2.15043
H          2.59108       -5.79107        3.03598
H          4.27197       -5.28432        3.29210
C          4.58686        0.90844        0.18738
H          4.47759        0.65125        1.24333
C          3.67267        1.15421       -2.02610
H          2.82917        1.06479       -2.71347
C          5.82310        1.35898       -0.26354
H          6.68079        1.44881        0.40565
C          4.90028        1.62015       -2.49148
H          5.04675        1.90635       -3.53452
C          5.96235        1.71117       -1.60203
F          7.14261        2.14519       -2.03744
C          1.09264        2.94642        0.03338
H          1.32250        2.95400       -1.03492
C          0.99140        1.79960        2.14694
H          1.15125        0.91587        2.76560
C          0.56280        4.09142        0.61466
H          0.38687        4.99888        0.03434
C          0.44403        2.93745        2.74253
H          0.18473        2.95915        3.80288
C          0.22670        4.06579        1.96519
F         -0.31681        5.14689        2.52181
H         -1.36031        1.86778        0.50795
H         -2.03706        1.95728       -1.09991
C         -3.51222        1.54616        0.43399
H         -4.25731        1.20679       -0.30465
H         -3.63725        0.88245        1.30692
C         -3.81321        2.98088        0.84840
H         -3.69307        3.64474       -0.02688
H         -3.05355        3.31813        1.57804
C         -5.20261        3.16760        1.44067
H         -5.95679        2.83265        0.70672
H         -5.31686        2.49724        2.31128
C         -5.49157        4.60081        1.85663
H         -6.50003        4.70525        2.28464
H         -5.42204        5.28715        0.99745
H         -4.77025        4.95005        2.61295
C         -3.96303       -1.66137       -0.62298
H         -3.94195       -1.67038        0.46933
C         -2.94710       -1.10236       -2.73772
H         -2.10940       -0.67358       -3.29448
C         -5.04862       -2.22518       -1.28673
H         -5.88146       -2.67680       -0.74459
C         -4.03182       -1.65171       -3.41547
H         -4.08163       -1.66463       -4.50574
C         -5.06877       -2.20929       -2.67717
F         -6.10443       -2.74781       -3.31538
C         -1.19711       -2.50440        1.11767
H         -1.16982       -3.05918        0.17592
C         -1.44301       -0.43257        2.31748
H         -1.60551        0.64535        2.34136
C         -0.99777       -3.18743        2.31064
H         -0.82435       -4.26485        2.33296
C         -1.23378       -1.10201        3.52425
H         -1.24305       -0.57347        4.47927
C         -1.00804       -2.47079        3.50428
F         -0.79439       -3.11551        4.64810
