48
Cat002.ts34.5.log	Energy: -1665348.5019166
C         -0.63971       -2.06490       -1.67346
H         -0.38223       -3.07356       -1.33768
H         -1.67793       -1.97243       -2.00998
C          0.36473       -1.29424       -2.32823
H          1.37854       -1.69804       -2.42219
H          0.07692       -0.71358       -3.21336
H          0.22363        0.18767       -1.62208
Co         0.03488       -0.66056       -0.41494
C         -1.55787        2.36773       -0.40415
C         -3.21125        0.13850       -1.08011
C         -2.41375        0.62647        1.64776
C          1.49792        1.35171        1.91151
C          3.21607       -0.56568        0.76599
C          2.39365        1.72839       -0.80583
P          1.72188        0.43465        0.33169
P         -1.71677        0.56158       -0.06862
C          0.13648       -1.83215        0.84735
O          0.19826       -2.60561        1.70814
H         -0.72961        2.77346        0.19485
H         -1.30441        2.51198       -1.46502
H         -2.46924        2.93779       -0.16697
H         -3.39533       -0.93216       -0.89396
C         -4.48070        0.94757       -0.87348
H         -4.33081        2.01655       -1.08832
H         -4.85606        0.86548        0.15812
H         -2.87405        0.19573       -2.12936
H         -5.28325        0.59290       -1.53930
H         -3.19938        1.40018        1.69624
C         -2.93625       -0.70900        2.15227
H         -2.15683       -1.48350        2.12558
H         -3.78364       -1.06832        1.54751
H         -1.58771        0.97853        2.28777
H         -3.28962       -0.62547        3.19163
H          1.13505        0.64121        2.66888
H          2.42725        1.81546        2.27557
H          0.73292        2.13153        1.78591
H          2.89690       -1.20790        1.60392
C          3.71486       -1.42097       -0.38566
H          4.06445       -0.80709       -1.23118
H          2.90481       -2.06728       -0.75469
H          4.00952        0.09473        1.15487
H          4.55289       -2.06250       -0.07376
H          1.54845        2.41222       -0.98996
C          3.63420        2.49113       -0.37372
H          4.50246        1.82614       -0.25016
H          3.48257        3.02163        0.57878
H          2.56020        1.21111       -1.76506
H          3.90894        3.24680       -1.12604
