74
Cat048.ts34.5.log	Energy: -2534671.4968515
C         -0.11367       -3.70995       -1.19009
H          0.23099       -4.64533       -0.74084
H         -1.19669       -3.68621       -1.35843
C          0.73571       -3.03374       -2.11101
H          1.75582       -3.39468       -2.27307
H          0.29435       -2.60125       -3.01663
H          0.49357       -1.45707       -1.60779
Co         0.70246       -2.09793       -0.30429
C         -2.32375       -2.30151        1.30934
O         -0.85540       -0.04381        1.54679
O         -2.04807       -0.51486       -0.70156
C          2.30527        0.45142        1.29435
O          3.67333       -1.12525       -0.46502
O          2.14154        0.60562       -1.38459
P          2.13192       -0.58398       -0.20011
P         -1.07851       -1.28405        0.42857
C          1.44484       -3.10950        0.91395
O          1.91286       -3.80084        1.70602
H         -2.68500       -3.05198        0.58782
C         -1.73983       -2.97117        2.54353
H         -1.33814       -2.22964        3.25109
H         -0.91699       -3.65164        2.28178
H         -3.19037       -1.66786        1.55904
H         -2.50832       -3.55816        3.06794
C         -1.77035        0.92586        1.84066
C         -2.69342        0.76471        2.87518
H         -2.69218       -0.15423        3.46350
C         -1.74736        2.11041        1.10338
H         -1.01662        2.21310        0.30337
C         -3.60633        1.78079        3.15437
H         -4.33940        1.68135        3.95681
C         -2.65587        3.12793        1.37411
H         -2.65781        4.05140        0.79181
C         -3.58054        2.94709        2.39783
F         -4.45763        3.91378        2.66424
C         -3.38170       -0.69473       -0.93774
C         -4.32886        0.16825       -0.38279
H         -4.00104        0.97573        0.27168
C         -3.78977       -1.72150       -1.79298
H         -3.03466       -2.37466       -2.23584
C         -5.68003       -0.00375       -0.67283
H         -6.43714        0.65941       -0.25063
C         -5.13945       -1.89926       -2.08288
H         -5.47989       -2.69509       -2.74766
C         -6.07066       -1.03735       -1.51538
F         -7.36391       -1.20387       -1.78902
H          1.43036        1.12074        1.28587
C          2.33418       -0.35052        2.58505
H          3.14775       -1.09063        2.59434
H          1.38455       -0.88487        2.72625
H          3.20675        1.07369        1.17100
H          2.47677        0.31712        3.44747
C          4.80808       -0.37065       -0.30917
C          5.65811       -0.66167        0.75879
H          5.38754       -1.46525        1.44611
C          5.14027        0.63551       -1.21897
H          4.46888        0.83912       -2.05271
C          6.83642        0.05932        0.93044
H          7.51812       -0.15101        1.75639
C          6.31619        1.36156       -1.04709
H          6.60077        2.15280       -1.74314
C          7.14893        1.06724        0.02594
F          8.27382        1.76308        0.18856
C          1.19743        1.58430       -1.51371
C          1.46480        2.86038       -1.00877
H          2.40820        3.03764       -0.48947
C          0.00610        1.34320       -2.20184
H         -0.19818        0.34638       -2.59088
C          0.54275        3.88962       -1.18017
H          0.72967        4.89245       -0.79235
C         -0.92282        2.36669       -2.36982
H         -1.86952        2.19191       -2.88345
C         -0.64437        3.62608       -1.85381
F         -1.54513        4.60189       -1.98719
