100
Cat095.ts34.5.log	Energy: -2155324.9246324
C         -0.52566       -1.99870       -2.32064
H         -0.25565       -3.04626       -2.15819
H         -1.54056       -1.86881       -2.71587
C          0.48691       -1.09118       -2.72504
H          1.51911       -1.43900       -2.83172
H          0.23531       -0.33726       -3.48256
H          0.31285        0.22811       -1.70319
Co         0.00817       -0.84845       -0.74954
C         -2.07054        1.40877       -2.08936
C         -3.44641       -0.83675       -0.79131
C         -2.18962        1.34195        0.88182
C          1.29765        0.66374        2.01806
C          3.02725       -1.30558        0.64534
C          2.58148        1.48268       -0.49904
P          1.73656        0.00717        0.30521
P         -1.92075        0.24879       -0.61252
C         -0.02038       -2.23914        0.26915
O         -0.01497       -3.19610        0.92591
H         -1.62820        0.77478       -2.87862
C         -3.44481        1.83545       -2.59307
H         -3.32823        2.42231       -3.51957
H         -4.08593        0.97648       -2.83528
H         -3.98284        2.46968       -1.87409
C         -1.14698        2.61129       -1.91011
H         -0.16591        2.30780       -1.51689
H         -0.98169        3.11990       -2.87349
H         -1.57285        3.35392       -1.21854
H         -3.47977       -0.99848       -1.88690
C         -4.80063       -0.25769       -0.37082
H         -4.97131        0.73198       -0.81276
H         -4.80544       -0.11626        0.72305
C         -5.94824       -1.19473       -0.73988
H         -6.90804       -0.75322       -0.42458
H         -5.99737       -1.29115       -1.84016
C         -5.76234       -2.57312       -0.11957
H         -6.57708       -3.24962       -0.42547
H         -5.82766       -2.48458        0.98030
C         -4.40734       -3.15827       -0.49526
H         -4.38976       -3.36041       -1.58207
H         -4.25289       -4.12997        0.00123
C         -3.25840       -2.21570       -0.15318
H         -3.17903       -2.10827        0.94290
H         -2.30788       -2.64853       -0.48524
H         -1.22243        1.88006        0.91163
C         -2.26432        0.48600        2.14931
H         -1.47868       -0.28345        2.12516
H         -3.22461       -0.05760        2.16235
C         -2.16098        1.33738        3.40986
H         -2.24758        0.70090        4.30555
H         -1.15751        1.79912        3.45272
C         -3.21655        2.43674        3.42802
H         -3.09805        3.07206        4.32084
H         -4.21797        1.97551        3.50574
C         -3.15480        3.28048        2.16010
H         -2.19373        3.82638        2.13309
H         -3.94636        4.04764        2.16936
C         -3.27693        2.42025        0.90322
H         -4.27427        1.95729        0.88479
H         -3.21328        3.05982        0.01189
H          0.31684        1.11088        1.79662
C          1.05699       -0.47778        3.00291
H          0.53724       -0.09575        3.89606
H          0.44135       -1.28230        2.57979
H          2.00161       -0.92641        3.34460
C          2.14085        1.75829        2.66318
H          2.26384        2.63862        2.01684
H          1.63714        2.10113        3.58260
H          3.14040        1.40661        2.95832
H          2.39886       -2.05364        1.16320
C          4.22229       -1.03591        1.56364
H          3.90293       -0.56134        2.50272
H          4.92504       -0.33903        1.08486
C          4.96225       -2.33823        1.86400
H          5.82083       -2.13980        2.52643
H          4.29062       -3.01873        2.41823
C          5.42585       -3.01992        0.58151
H          5.93394       -3.97058        0.81158
H          6.17756       -2.37848        0.08569
C          4.26088       -3.25551       -0.37289
H          3.56794       -3.99213        0.07168
H          4.61865       -3.69630       -1.31778
C          3.48800       -1.97108       -0.65282
H          4.12659       -1.27081       -1.22236
H          2.60563       -2.17961       -1.27502
H          1.91994        2.31334       -0.17959
C          2.57364        1.48010       -2.03057
H          1.56865        1.26525       -2.41174
H          3.22122        0.66483       -2.39848
C          3.05059        2.81506       -2.59506
H          3.04585        2.77640       -3.69660
H          2.32360        3.59798       -2.31048
C          4.43063        3.20133       -2.08014
H          4.71845        4.19861       -2.45073
H          5.17813        2.49272       -2.48056
C          4.47383        3.15771       -0.55890
H          3.82524        3.95278       -0.14724
H          5.49237        3.36938       -0.19445
C          4.00464        1.80519       -0.03002
H          4.68193        1.02495       -0.41608
H          4.09211        1.77910        1.06182
