68
Cat021.ts34.5.log	Energy: -3389684.3599383
C          1.39803        1.18082        3.72620
H          1.22147        0.59447        4.63191
H          2.43883        1.50054        3.60738
C          0.36140        2.02479        3.24321
H         -0.62355        1.99840        3.71900
H          0.62216        3.02093        2.86684
H          0.47325        1.73387        1.61570
Co         0.54927        0.34490        2.10515
C          3.91515        0.05637        1.48663
O          2.16322       -1.53994        0.18469
O          2.36587        0.82665       -0.57449
C         -0.86063       -0.66976       -0.78630
O         -2.46273       -0.56805        1.39491
O         -1.69476        1.64624        0.36440
P         -1.07624        0.15803        0.81593
P          2.19787       -0.03246        0.88443
C          0.26308       -1.13688        2.97808
O          0.10230       -2.13682        3.52502
H          4.12129        1.09148        1.79595
H          4.00461       -0.59165        2.37087
H          4.64127       -0.25169        0.72101
C          3.19723       -2.14272       -0.47814
C          3.78424       -3.26814        0.10151
H          3.41747       -3.61374        1.06998
C          3.63676       -1.68252       -1.72115
H          3.16634       -0.80261       -2.15966
C          4.81379       -3.93548       -0.55420
H          5.27821       -4.81762       -0.11075
C          4.67034       -2.34585       -2.37681
H          5.02400       -1.99748       -3.34858
C          5.25550       -3.46797       -1.79160
Cl         6.54074       -4.29164       -2.61088
C          2.46778        2.18783       -0.58165
C          3.73109        2.78197       -0.63909
H          4.61698        2.14483       -0.66832
C          1.32276        2.98950       -0.57064
H          0.33456        2.52996       -0.53232
C          3.85493        4.16759       -0.67738
H          4.83785        4.63856       -0.72809
C          1.44287        4.37607       -0.60447
H          0.55325        5.00783       -0.59473
C          2.70787        4.96006       -0.65352
Cl         2.85670        6.68540       -0.69476
H         -0.53351       -1.70225       -0.59788
H         -1.77130       -0.67577       -1.40026
H         -0.04215       -0.15127       -1.30653
C         -3.06512       -1.68511        0.88055
C         -2.68015       -2.94266        1.34838
H         -1.89606       -3.01379        2.10478
C         -4.07777       -1.56991       -0.07290
H         -4.37779       -0.58146       -0.42371
C         -3.30079       -4.08706        0.85704
H         -3.00811       -5.07515        1.21542
C         -4.70172       -2.71314       -0.56406
H         -5.49526       -2.63459       -1.30877
C         -4.30824       -3.96744       -0.09978
Cl        -5.08086       -5.39070       -0.71473
C         -2.87760        1.80992       -0.29923
C         -4.06163        1.93999        0.42882
H         -4.02193        1.87824        1.51700
C         -2.89958        1.88197       -1.69265
H         -1.96493        1.79764       -2.25018
C         -5.26952        2.12704       -0.23518
H         -6.20198        2.22520        0.32275
C         -4.10680        2.06617       -2.36163
H         -4.13708        2.12282       -3.45078
C         -5.28803        2.18175       -1.62950
Cl        -6.79160        2.40286       -2.45856
