112
Cat086.ts34.5.log	Energy: -2442060.9860655
C         -1.25285        3.21980       -2.27245
H         -1.14342        3.36317       -3.35114
H         -2.28311        3.35491       -1.92354
C         -0.18785        3.64508       -1.42126
H          0.73178        4.03486       -1.87415
H         -0.44506        4.18902       -0.50334
H         -0.00478        2.41639       -0.37672
Co        -0.24171        1.62017       -1.62200
C         -2.71088        1.05387        0.78652
C         -3.30193        0.45611       -1.99710
C         -1.61834       -1.33881       -0.40015
C          2.13015       -0.82765       -1.77246
C          3.03832        1.92595       -1.30638
C          1.65596        0.37808        0.86469
P          1.61044        0.75245       -0.96930
P         -1.89136        0.49162       -0.76910
C         -0.10320        1.01662       -3.23586
O         -0.05666        0.57360       -4.30476
H         -3.55678        0.39021        1.02986
H         -1.96903        0.89927        1.58761
C         -3.14131        2.51118        0.76505
H         -2.26695        3.14704        0.54784
H         -3.85100        2.68905       -0.06294
C         -3.78697        2.95747        2.06923
H         -3.08251        2.78196        2.90256
H         -4.66147        2.31526        2.28197
C         -4.21806        4.41721        2.06681
H         -3.34039        5.05201        1.85078
H         -4.91830        4.58576        1.22928
C         -4.86306        4.85987        3.37011
H         -5.16397        5.91799        3.33737
H         -4.17207        4.73647        4.21961
H         -5.76351        4.26461        3.59223
H         -3.61328        1.50822       -2.08776
H         -2.82072        0.20220       -2.95347
C         -4.47204       -0.43589       -1.74157
C         -4.60168       -1.64891       -2.43123
H         -3.85326       -1.92417       -3.17938
C         -5.46190       -0.09409       -0.81153
H         -5.39260        0.86311       -0.28758
C         -5.68328       -2.49126       -2.18519
H         -5.77927       -3.42865       -2.73854
C         -6.54270       -0.93566       -0.53519
C         -7.54565       -0.56818        0.51894
H         -7.21411       -0.92626        1.50836
H         -7.67319        0.52159        0.59309
H         -8.52891       -1.01796        0.31928
C         -6.64491       -2.14164       -1.23994
H         -7.49237       -2.80669       -1.05198
H         -1.98841       -1.88679       -1.28000
H         -0.52690       -1.46488       -0.39130
C         -2.20953       -1.89117        0.86423
C         -1.51385       -1.78684        2.07531
H         -0.51939       -1.33535        2.09835
C         -3.47587       -2.48919        0.87872
H         -4.03066       -2.58227       -0.05693
C         -2.07662       -2.25327        3.26073
H         -1.51949       -2.16167        4.19640
C         -4.05432       -2.96663        2.05874
C         -5.40112       -3.63072        2.03961
H         -5.92873       -3.43246        1.09672
H         -5.30357       -4.72401        2.14523
H         -6.03273       -3.28258        2.87139
C         -3.34073       -2.83438        3.25617
H         -3.77901       -3.19673        4.19042
H          1.45872       -1.59556       -1.35301
H          1.83529       -0.73640       -2.83017
C          3.58078       -1.27768       -1.65699
H          4.20762       -0.65812       -2.32065
H          3.95649       -1.11152       -0.63660
C          3.77983       -2.74363       -2.01274
H          3.45905       -2.92648       -3.05464
H          3.11595       -3.35634       -1.37702
C          5.21597       -3.21033       -1.82238
H          5.88567       -2.59615       -2.45104
H          5.51380       -3.01002       -0.77759
C          5.42148       -4.68231       -2.13985
H          6.46766       -4.99010       -1.99046
H          5.15418       -4.90836       -3.18474
H          4.79262       -5.31811       -1.49582
H          3.44099        1.61424       -2.28214
H          2.53603        2.88773       -1.47398
C          4.12928        2.10611       -0.29641
C          3.94244        2.98381        0.78159
H          3.00414        3.53925        0.86773
C          5.35192        1.43700       -0.39916
H          5.51819        0.76031       -1.24012
C          4.94451        3.16059        1.73117
H          4.78632        3.84566        2.56767
C          6.37209        1.60272        0.54295
C          7.67359        0.87204        0.38340
H          7.50940       -0.16920        0.06716
H          8.30272        1.35011       -0.38551
H          8.24816        0.85946        1.32024
C          6.15116        2.47120        1.61710
H          6.93420        2.61396        2.36682
H          1.88176        1.33604        1.35674
H          0.60102        0.16316        1.08912
C          2.53668       -0.71994        1.38173
C          2.14034       -2.05884        1.27494
H          1.16357       -2.31048        0.85580
C          3.77844       -0.43992        1.96663
H          4.09044        0.60048        2.07793
C          2.98541       -3.08301        1.69617
H          2.66465       -4.12317        1.59960
C          4.63633       -1.45434        2.39901
C          5.96477       -1.12988        3.01900
H          6.10440       -0.04498        3.11668
H          6.05860       -1.58136        4.01924
H          6.79420       -1.52238        2.40903
C          4.23006       -2.78613        2.24239
H          4.88929       -3.59517        2.56956
