64
Cat011.ts34.5.log	Energy: -2296631.8366144
C         -0.77163       -2.57607       -1.66495
H         -0.73297       -3.65723       -1.50371
H         -1.75858       -2.21430       -1.97391
C          0.39196       -1.91652       -2.13811
H          1.32618       -2.47325       -2.26256
H          0.28165       -1.12851       -2.89227
H          0.45459       -0.53468       -1.14551
Co         0.08058       -1.56187       -0.15066
C         -1.68306       -0.01086        2.30823
C         -1.67176        1.37920       -0.19736
C         -3.27516       -0.93618        0.18782
C          2.10131       -1.11779        2.54730
C          3.39572       -0.96318        0.04748
C          1.69881        1.18273        0.87190
P          1.75244       -0.64865        0.80655
P         -1.56890       -0.31582        0.49691
C          0.06247       -2.97764        0.85344
O          0.01847       -3.90448        1.54357
H         -1.71540       -0.99350        2.80007
H         -0.78387        0.52177        2.65084
H         -2.58177        0.55747        2.58996
C         -1.61068        1.50403       -1.59372
H         -1.52296        0.60482       -2.20975
C         -1.76935        2.54298        0.57122
H         -1.80857        2.48545        1.65995
C         -1.65570        2.74866       -2.20923
H         -1.61460        2.85538       -3.29479
C         -1.79845        3.80149       -0.02957
H         -1.84699        4.71756        0.56168
C         -1.74286        3.88689       -1.41285
F         -1.76087        5.08423       -1.99477
C         -4.35250       -0.09646       -0.11967
H         -4.19360        0.97976       -0.22051
C         -3.50612       -2.31342        0.30254
H         -2.67021       -2.98149        0.52355
C         -5.63220       -0.61406       -0.30565
H         -6.47981        0.02830       -0.55172
C         -4.78159       -2.84307        0.13302
H         -4.97425       -3.91370        0.22251
C         -5.82972       -1.98295       -0.17346
F         -7.05065       -2.48325       -0.35008
H          2.30602       -2.19748        2.55784
H          2.97137       -0.58383        2.95588
H          1.21542       -0.93853        3.17345
C          4.44198       -0.03337        0.07113
H          4.28804        0.95102        0.52014
C          3.61364       -2.21570       -0.53811
H          2.79048       -2.93509       -0.56338
C          5.68188       -0.34467       -0.48040
H          6.50709        0.36989       -0.47725
C          4.85131       -2.54536       -1.08235
H          5.03757       -3.51851       -1.54026
C          5.86938       -1.59947       -1.04905
F          7.05237       -1.90018       -1.57838
C          1.63620        1.90575        2.06695
H          1.69144        1.39258        3.02887
C          1.63876        1.88829       -0.34014
H          1.67445        1.34099       -1.28569
C          1.49605        3.29427        2.06115
H          1.43115        3.86692        2.98803
C          1.52247        3.27082       -0.36344
H          1.46549        3.82663       -1.30062
C          1.43542        3.95603        0.84420
F          1.27323        5.27687        0.82844
