104
Cat078.ts34.5.log	Energy: -2532210.0754787
C         -0.62634       -2.50609        2.46221
H         -0.69217       -2.28996        3.53193
H         -1.46264       -3.10343        2.08214
C          0.64543       -2.63979        1.86007
H          1.55207       -2.47539        2.44855
H          0.78041       -3.38542        1.06956
H          0.46962       -1.67420        0.41088
Co        -0.19974       -0.82849        1.40455
C         -3.55744       -1.20054        0.79079
O         -2.09784        0.31224       -0.93178
O         -1.93073       -2.30628       -0.86438
C          0.38883        2.24324        0.29391
O          2.54562        1.10607        1.19660
O          1.54814        0.21973       -1.00411
P          1.09656        0.58974        0.55661
P         -1.86850       -0.96083        0.13777
C         -0.68693        0.17007        2.74859
O         -1.04863        0.83038        3.62178
H         -4.22186       -1.46631       -0.04673
H         -3.49085       -2.08771        1.44167
C         -4.09065       -0.00204        1.56062
H         -3.37131        0.29855        2.34017
H         -4.18275        0.85807        0.87785
C         -5.44505       -0.26793        2.20165
H         -5.36043       -1.12365        2.89613
H         -6.16235       -0.58229        1.42198
C         -6.00183        0.93695        2.94659
H         -5.27520        1.25240        3.71604
H         -6.08163        1.78671        2.24551
C         -7.35308        0.67673        3.59204
H         -7.72928        1.56564        4.12069
H         -7.29450       -0.14494        4.32399
H         -8.10703        0.39283        2.84014
C         -3.19809        0.54894       -1.71666
C         -3.72892       -0.43680       -2.55114
H         -3.27206       -1.42606       -2.56487
C         -3.74670        1.84297       -1.67974
C         -3.14463        2.90893       -0.81619
H         -3.83422        3.75614       -0.69964
H         -2.88330        2.52736        0.18131
H         -2.21175        3.29582       -1.25693
C         -4.83300       -0.14671       -3.34962
H         -5.24472       -0.92238       -3.99942
C         -4.85442        2.10199       -2.49218
H         -5.29600        3.10217       -2.46941
C         -5.40164        1.12367       -3.31978
H         -6.26853        1.35632       -3.94201
C         -0.85843       -2.74731       -1.59244
C         -0.15510       -1.88852       -2.43673
H         -0.43000       -0.83450       -2.47910
C         -0.52775       -4.10853       -1.49169
C         -1.30925       -5.00687       -0.58259
H         -1.18138       -4.71922        0.47341
H         -2.38735       -4.94524       -0.79516
H         -0.98947       -6.05214       -0.69040
C          0.90559       -2.37994       -3.19436
H          1.46562       -1.70105       -3.84088
C          0.53847       -4.57464       -2.26633
H          0.81025       -5.63188       -2.20153
C          1.25418       -3.72542       -3.11031
H          2.08739       -4.11558       -3.69876
H         -0.37593        2.06584       -0.47917
H         -0.16445        2.48746        1.21678
C          1.33925        3.36642       -0.08687
H          2.01184        3.57341        0.76045
H          1.99518        3.04083       -0.90963
C          0.61030        4.63860       -0.49482
H         -0.07634        4.94647        0.31501
H         -0.03478        4.42806       -1.36777
C          1.54699        5.79073       -0.82988
H          2.18627        6.00114        0.04562
H          2.23721        5.47226       -1.63132
C          0.82053        7.05747       -1.25175
H          1.52331        7.87130       -1.48612
H          0.14954        7.41686       -0.45490
H          0.20199        6.88403       -2.14721
C          3.44061        0.44559        1.99259
C          3.03022       -0.36553        3.04852
H          1.96219       -0.48648        3.22862
C          4.80201        0.68020        1.73504
C          5.21982        1.62330        0.64986
H          4.90104        1.26779       -0.34059
H          4.75932        2.61322        0.79158
H          6.31136        1.74485        0.63764
C          3.98178       -1.00988        3.83688
H          3.65564       -1.65029        4.65984
C          5.73177        0.02270        2.54496
H          6.79590        0.18944        2.35629
C          5.33728       -0.82552        3.57914
H          6.08961       -1.32684        4.19200
C          2.77220        0.14023       -1.59912
C          3.12478        1.12396       -2.52371
H          2.42328        1.93877       -2.71019
C          3.61374       -0.95959       -1.35666
C          3.20609       -2.05463       -0.42462
H          3.11884       -1.70109        0.61386
H          2.22795       -2.46412       -0.71704
H          3.94183       -2.86953       -0.43737
C          4.34025        1.05167       -3.19894
H          4.60928        1.82860       -3.91814
C          4.83115       -1.00393       -2.04454
H          5.49937       -1.84966       -1.86175
C          5.20354       -0.01327       -2.95070
H          6.16225       -0.07976       -3.46960
