82
Cat043.ts34.5.log	Energy: -2195546.8980624
C          0.49511       -1.67596       -2.27613
H         -0.16989       -1.42050       -3.10629
H          1.56283       -1.65518       -2.51864
C          0.03595       -2.55546       -1.27898
H         -0.97781       -2.96430       -1.34844
H          0.75972       -3.24238       -0.82465
H         -0.00679       -1.81302        0.26644
Co         0.02228       -0.60725       -0.60404
C          1.77873       -0.88669        2.27174
C          3.23356       -1.24534       -0.24010
C          2.47212        1.44074        0.77030
C         -1.64757        0.40639        2.17768
C         -2.61583        1.36306       -0.41846
C         -3.16810       -1.36236        0.59945
P         -1.83431       -0.08243        0.39354
P          1.86295       -0.28811        0.51355
C          0.01294        0.75300       -1.66785
O          0.02941        1.64705       -2.39729
H          1.41309       -1.92527        2.21425
C          2.96676       -0.75942        3.20762
H          3.29336        0.28680        3.29817
H          3.82837       -1.35781        2.87739
H          0.93064       -0.31013        2.66924
H          2.69248       -1.10745        4.21608
C          3.55680       -2.50321        0.29026
H          3.07496       -2.84470        1.20832
C          3.83858       -0.83819       -1.45364
C          3.50770        0.46339       -2.12131
H          3.88897        1.32993       -1.55981
H          2.42148        0.60524       -2.20218
H          3.93454        0.50121       -3.13280
C          4.48599       -3.33827       -0.32409
H          4.72089       -4.30963        0.11752
C          4.77520       -1.69067       -2.04922
H          5.24825       -1.37267       -2.98258
C          5.10816       -2.92525       -1.49814
H          5.84188       -3.56585       -1.99285
C          1.45268        2.40397        0.72401
H          0.44270        2.07188        0.47506
C          3.79394        1.85705        1.05661
C          4.99190        0.94920        1.08499
H          4.75874       -0.06497        1.42034
H          5.76873        1.36443        1.74286
H          5.43293        0.84788        0.07992
C          1.69663        3.75145        0.96222
H          0.87625        4.47101        0.91114
C          4.01799        3.22277        1.28709
H          5.03794        3.55083        1.50702
C          2.99484        4.16415        1.24553
H          3.21572        5.21824        1.43054
H         -0.89013        1.20709        2.20623
C         -2.87018        0.75573        3.00851
H         -3.59940       -0.06767        3.00743
H         -3.38088        1.65934        2.64565
H         -1.15111       -0.47983        2.60425
H         -2.57957        0.94039        4.05464
C         -2.52216        2.63365        0.16312
H         -2.08343        2.74846        1.15600
C         -3.14382        1.23717       -1.72391
C         -3.20459       -0.08822       -2.42296
H         -4.03679       -0.71081       -2.05638
H         -2.28029       -0.65722       -2.23141
H         -3.32788        0.04179       -3.50678
C         -2.97555        3.76926       -0.50321
H         -2.89336        4.74931       -0.02735
C         -3.59887        2.38893       -2.37203
H         -4.00665        2.29442       -3.38227
C         -3.52744        3.64479       -1.77452
H         -3.88681        4.52633       -2.31045
C         -2.67429       -2.65844        0.81174
H         -1.59365       -2.80931        0.80348
C         -4.56940       -1.15626        0.64114
C         -5.25513        0.17355        0.49180
H         -5.32615        0.48534       -0.56133
H         -4.73273        0.98130        1.01491
H         -6.27824        0.11172        0.88817
C         -3.50965       -3.74732        1.03595
H         -3.08275       -4.73922        1.20115
C         -5.39331       -2.27372        0.84703
H         -6.47557       -2.11879        0.87216
C         -4.88689       -3.55435        1.03750
H         -5.56788       -4.39354        1.19849
