100
Cat071.ts34.5.log	Energy: -2343461.1026500
C          1.52344       -1.21201       -3.03979
H          1.41819       -0.72106       -4.01193
H          2.56332       -1.40988       -2.75681
C          0.51325       -2.12554       -2.62593
H         -0.39236       -2.24875       -3.23006
H          0.82173       -3.06704       -2.15443
H          0.34286       -1.70839       -1.02703
Co         0.38437       -0.35825       -1.62627
C          2.15972       -0.93738        1.26115
C          3.52337        0.71463       -0.67464
C          1.34294        1.76267        0.77790
C         -2.06663        1.44459       -0.12249
C         -2.92330       -0.99579       -1.38239
C         -1.43889       -1.13044        1.05448
P         -1.46995       -0.24425       -0.55059
P          1.83278        0.23390       -0.12335
C          0.10604        1.04068       -2.61175
O         -0.04716        1.99814       -3.24506
H          2.83449       -0.49207        2.01104
H          1.18511       -1.08058        1.75477
C          2.68054       -2.28481        0.78811
H          2.00738       -2.66571        0.00093
H          3.66881       -2.16402        0.31056
C          2.76725       -3.30515        1.91370
H          1.78197       -3.36747        2.41011
H          3.47124       -2.94552        2.68651
C          3.18508       -4.69368        1.45289
H          2.48296       -5.03814        0.67278
H          4.17115       -4.63393        0.95929
C          3.23518       -5.71097        2.58131
H          3.53257       -6.70772        2.22162
H          2.25138       -5.81338        3.06841
H          3.95507       -5.40984        3.35953
C          3.70985        1.12401       -1.99792
H          2.86007        1.10425       -2.68352
C          4.62654        0.74078        0.18806
H          4.51534        0.44436        1.23367
C          4.95834        1.55357       -2.44342
H          5.07542        1.87728       -3.48152
C          5.87402        1.15624       -0.26421
H          6.72037        1.16760        0.42892
C          6.06460        1.57055       -1.58926
C          7.41963        1.99362       -2.07563
H          7.95162        2.58888       -1.31841
H          8.04927        1.11619       -2.29946
H          7.34955        2.59154       -2.99535
C          1.00819        1.79272        2.13430
H          1.13745        0.90601        2.75614
C          1.17038        2.93910        0.03135
H          1.42085        2.94688       -1.03235
C          0.47531        2.94663        2.71344
H          0.20797        2.93789        3.77436
C          0.65394        4.08734        0.61528
H          0.52300        4.98575        0.00537
C          0.27495        4.10921        1.96632
C         -0.34528        5.33419        2.57114
H          0.20480        6.24508        2.28997
H         -1.38334        5.46288        2.22079
H         -0.37050        5.27498        3.66848
H         -1.29311        1.86674        0.53980
H         -1.98030        2.01927       -1.05894
C         -3.45323        1.60860        0.47908
H         -4.21759        1.35064       -0.27272
H         -3.60229        0.89745        1.30963
C         -3.67986        3.02590        0.98896
H         -3.51502        3.74121        0.16258
H         -2.90564        3.26361        1.74204
C         -5.05795        3.25463        1.59180
H         -5.82828        3.02569        0.83438
H         -5.21973        2.52940        2.40918
C         -5.25574        4.66832        2.11477
H         -6.25699        4.80784        2.54997
H         -5.13658        5.41154        1.30984
H         -4.51682        4.91110        2.89597
C         -2.97189       -0.96850       -2.77967
H         -2.12416       -0.54796       -3.32782
C         -4.00216       -1.55341       -0.68570
H         -3.98340       -1.59263        0.40629
C         -4.07794       -1.46816       -3.46163
H         -4.09875       -1.42926       -4.55447
C         -5.09985       -2.06208       -1.37342
H         -5.93332       -2.49308       -0.81112
C         -5.15921       -2.02885       -2.77242
C         -6.33088       -2.60845       -3.50927
H         -7.26092       -2.50903       -2.93075
H         -6.47699       -2.11942       -4.48317
H         -6.18019       -3.68394       -3.70247
C         -1.43088       -0.48355        2.29174
H         -1.55875        0.59801        2.34969
C         -1.26199       -2.52325        1.03624
H         -1.26461       -3.05372        0.07991
C         -1.22344       -1.20223        3.47143
H         -1.20743       -0.66873        4.42607
C         -1.06765       -3.23450        2.21169
H         -0.92831       -4.31858        2.16701
C         -1.02922       -2.58456        3.45536
C         -0.76826       -3.35921        4.71302
H         -1.46736       -4.20363        4.81635
H          0.24990       -3.78246        4.70915
H         -0.86432       -2.72616        5.60601
