76
Cat094.ts34.5.log	Energy: -2051295.4835397
C         -0.60445       -1.52238       -2.36424
H         -0.32118       -2.57840       -2.34063
H         -1.64755       -1.32992       -2.62725
C          0.37694       -0.56122       -2.68755
H          1.40602       -0.88219       -2.87979
H          0.08357        0.30101       -3.29689
H          0.31165        0.62463       -1.46914
Co        -0.03608       -0.56256       -0.66505
C         -1.83154        2.38330       -0.75639
O         -3.14162        0.15404       -1.18965
O         -2.46488        0.70995        1.20820
C          1.76839        0.19692        2.22123
O          3.09146       -0.81424        0.15552
O          2.25238        1.59326        0.05322
P          1.70191        0.06500        0.37458
P         -1.80528        0.59137       -0.30713
C         -0.27772       -2.06812        0.14822
O         -0.48796       -3.08702        0.65530
H         -1.50679        2.38408       -1.81376
C         -3.21527        3.00672       -0.64982
H         -3.17617        4.07333       -0.92322
H         -3.93245        2.50385       -1.31146
H         -3.58950        2.93425        0.38294
C         -0.79893        3.13096        0.07847
H          0.19995        2.67514        0.02110
H         -0.71609        4.17541       -0.26173
H         -1.10720        3.15196        1.13584
C         -4.17212       -0.71525       -0.73151
H         -4.28960       -0.56290        0.35441
C         -3.83343       -2.17151       -0.99470
H         -2.88827       -2.46131       -0.51609
H         -3.74011       -2.36026       -2.07534
H         -4.62809       -2.82336       -0.60076
C         -5.45029       -0.28491       -1.42327
H         -5.68836        0.76096       -1.18278
H         -5.34057       -0.37254       -2.51533
H         -6.29437       -0.91604       -1.10693
C         -1.93852        0.01758        2.33522
H         -0.93530       -0.34672        2.06019
C         -2.80950       -1.17460        2.67696
H         -2.83582       -1.89374        1.84625
H         -3.83897       -0.85301        2.89987
H         -2.41237       -1.69917        3.55905
C         -1.81643        1.00755        3.47528
H         -1.17276        1.85217        3.18872
H         -2.80521        1.40900        3.74592
H         -1.38135        0.52539        4.36354
H          0.91866        0.85867        2.46488
C          1.54954       -1.16392        2.87107
H          1.48258       -1.05355        3.96480
H          0.63253       -1.66491        2.53257
H          2.39606       -1.83277        2.65456
C          3.05740        0.84097        2.71492
H          3.16958        1.86123        2.32754
H          3.05908        0.88585        3.81568
H          3.93035        0.25060        2.39715
C          3.16144       -1.93868       -0.71869
H          2.17422       -2.04204       -1.20400
C          3.42834       -3.18247        0.10398
H          2.60275       -3.36450        0.80691
H          4.36063       -3.07232        0.67953
H          3.52237       -4.06534       -0.54604
C          4.22239       -1.67741       -1.76884
H          3.97872       -0.78192       -2.35989
H          5.20434       -1.51962       -1.29606
H          4.30419       -2.53052       -2.45890
C          3.29619        1.94596       -0.84674
H          4.04610        1.13681       -0.83764
C          3.93121        3.21395       -0.31146
H          4.32838        3.05361        0.70062
H          3.18786        4.02487       -0.26722
H          4.75867        3.53575       -0.96125
C          2.76286        2.11993       -2.25713
H          2.34969        1.18056       -2.64629
H          1.96452        2.87812       -2.27458
H          3.56649        2.44514       -2.93507
