74
Cat178.ts34.5.log	Energy: -1956904.9489659
C          1.08096       -2.99443        0.93548
H          0.79512       -3.87595        0.35416
H          2.15745       -2.92860        1.12466
C          0.18075       -2.52416        1.93230
H         -0.79329       -3.01377        2.04194
H          0.59367       -2.21303        2.89992
H          0.16650       -0.90562        1.69951
Co         0.17704       -1.32452        0.27654
O          2.42156        0.98209        1.15914
C          3.51860       -0.90433       -0.27650
C          1.69996        1.21161       -1.45066
O         -1.42189        1.16719       -0.76681
C         -3.08568       -1.10376       -0.55510
C         -2.21552        0.57042        1.79976
P         -1.63139       -0.18093        0.19005
P          1.88759       -0.02943       -0.06814
C         -0.10457       -2.08234       -1.24918
O         -0.28061       -2.58544       -2.27699
C          1.59551        1.46632        2.19721
H          0.89478        0.65879        2.48961
C          0.78137        2.66419        1.73786
H          0.13366        2.39283        0.89135
H          1.44441        3.48388        1.42040
H          0.14101        3.03673        2.55273
C          2.49771        1.78179        3.37332
H          3.06588        0.88787        3.66821
H          3.21668        2.57131        3.10471
H          1.90939        2.12623        4.23708
H          3.56482       -1.43132        0.69430
C          3.49269       -1.95747       -1.37762
H          4.36894       -2.61927       -1.28697
H          2.58927       -2.58062       -1.33047
H          3.53344       -1.49915       -2.37640
C          4.74899       -0.01105       -0.36807
H          4.72253        0.78872        0.38406
H          5.65994       -0.60991       -0.20326
H          4.84017        0.44809       -1.36339
H          0.70109        1.60005       -1.19637
C          2.68217        2.37581       -1.46321
H          2.27393        3.20143       -2.07030
H          2.87503        2.75692       -0.45180
H          3.64833        2.09567       -1.90664
C          1.57371        0.56120       -2.82326
H          0.88509       -0.29463       -2.82398
H          1.19134        1.29661       -3.55050
H          2.54747        0.21440       -3.20146
C         -2.29688        1.99583       -1.52403
H         -3.28254        2.05226       -1.03284
C         -2.45891        1.44092       -2.92781
H         -2.93064        0.44895       -2.92179
H         -1.47345        1.34487       -3.40787
H         -3.08302        2.10957       -3.53974
C         -1.68705        3.38537       -1.53418
H         -1.57056        3.77277       -0.51171
H         -0.69165        3.36185       -2.00370
H         -2.32109        4.08386       -2.10030
H         -2.74052       -1.20078       -1.60051
C         -3.16928       -2.52236        0.01101
H         -3.80647       -3.14513       -0.63638
H         -2.17669       -2.98780        0.07382
H         -3.61346       -2.53243        1.01700
C         -4.46830       -0.45938       -0.55092
H         -4.49561        0.53169       -1.02082
H         -5.17333       -1.10030       -1.10528
H         -4.86382       -0.36100        0.47081
H         -1.25257        0.89221        2.22830
C         -3.09679        1.80870        1.70319
H         -3.27509        2.21109        2.71402
H         -2.61708        2.60368        1.11729
H         -4.08049        1.59618        1.26110
C         -2.80058       -0.47643        2.74175
H         -2.16794       -1.37239        2.80628
H         -2.89209       -0.05785        3.75677
H         -3.80740       -0.79082        2.42870
