80
Cat169.ts34.5.log	Energy: -2006208.0138103
C          0.61127       -3.84097       -0.12006
H          0.98950       -4.33300        0.78060
H         -0.35117       -4.23773       -0.45947
C          1.54911       -3.39363       -1.09450
H          2.62148       -3.48751       -0.89474
H          1.31641       -3.55058       -2.15416
H          0.95156       -1.87536       -1.48518
Co         0.77592       -1.84517       -0.01440
O         -1.38670       -0.14123       -1.60021
C         -2.48516       -2.52734       -0.83233
C         -2.05353       -0.40241        1.07009
O          0.99649        1.23432        0.68799
C          3.49117        0.13428        0.37568
C          1.78194        0.74170       -1.88901
P          1.74240        0.02617       -0.19989
P         -1.24714       -1.24978       -0.35348
C          1.10892       -1.93114        1.68514
O          1.30260       -1.96737        2.82531
C         -2.35627        0.87021       -1.75028
H         -2.70495        0.84134       -2.79820
H         -3.24462        0.68500       -1.12284
C         -1.77439        2.23376       -1.43009
H         -1.34099        2.20081       -0.41702
H         -0.92703        2.42296       -2.11141
C         -2.79049        3.35971       -1.54338
H         -3.62195        3.17435       -0.83988
H         -3.24373        3.34540       -2.55083
C         -2.19397        4.73204       -1.27499
H         -1.77590        4.79195       -0.25758
H         -1.37578        4.95516       -1.97856
H         -2.94515        5.53022       -1.37281
H         -2.05306       -3.03673       -1.71110
H         -2.45634       -3.27185       -0.01704
C         -3.91845       -2.10330       -1.11972
H         -3.92898       -1.40788       -1.97440
H         -4.32430       -1.54111       -0.26093
C         -4.82785       -3.28592       -1.42081
H         -4.46629       -3.85351       -2.29313
H         -4.86831       -3.98383       -0.56920
H         -5.85757       -2.96170       -1.63651
H         -1.31707        0.36296        1.36074
H         -2.98040        0.11991        0.78186
C         -2.32747       -1.33505        2.24481
H         -1.44435       -1.96842        2.42705
H         -3.15049       -2.02374        1.98710
C         -2.67463       -0.57764        3.51747
H         -1.83662        0.06446        3.83149
H         -3.55440        0.07069        3.37394
H         -2.89680       -1.26508        4.34780
C          1.66170        2.29890        1.33866
H          2.16461        1.92238        2.24898
H          2.44037        2.73753        0.69242
C          0.66262        3.37309        1.71301
H          1.22552        4.21286        2.15787
H          0.20299        3.76568        0.78910
C         -0.42242        2.91386        2.67516
H          0.05034        2.51649        3.59080
H         -0.95964        2.06530        2.22560
C         -1.41031        4.01046        3.03575
H         -0.90824        4.86621        3.51560
H         -1.92588        4.39338        2.14000
H         -2.18237        3.64550        3.72987
H          3.91347        1.13414        0.18136
H          3.45428        0.00331        1.47078
C          4.37168       -0.94727       -0.23653
H          4.39243       -0.83522       -1.33463
H          3.89876       -1.92291       -0.04327
C          5.79190       -0.92888        0.30524
H          6.29014        0.03235        0.09982
H          5.80134       -1.07899        1.39660
H          6.40399       -1.72462       -0.14590
H          2.43322        0.07119       -2.47774
H          0.75892        0.57566       -2.26384
C          2.18993        2.19756       -2.05236
H          3.21161        2.35850       -1.66652
H          1.52367        2.82518       -1.43801
C          2.11914        2.65914       -3.50065
H          2.78991        2.06669       -4.14306
H          1.09875        2.54588       -3.90085
H          2.40438        3.71734       -3.60391
