108
Cat103.ts34.5.log	Energy: -2720764.6060396
C         -0.35762       -0.86976       -2.73613
H          0.15212       -1.72409       -3.18502
H         -1.42184       -0.80025       -2.97071
C          0.37612        0.29725       -2.45676
H          1.45151        0.32616       -2.66009
H         -0.12569        1.26456       -2.57214
H          0.28263        0.69708       -0.77161
Co         0.03588       -0.76031       -0.73568
C         -1.40418        0.94443        1.90629
C         -2.33064        1.32267       -0.92965
C         -3.28332       -0.84391        0.75780
C          2.53188       -2.28242        1.11743
C          3.45126       -0.64813       -0.93295
C          2.18689        0.80682        1.27267
P          1.98904       -0.72012        0.23064
P         -1.71514        0.06124        0.28125
C         -0.14412       -2.47397       -0.78790
O         -0.23167       -3.62296       -0.91366
H         -0.50682        1.54081        1.69047
C         -2.50869        1.85032        2.42575
H         -3.38461        1.26437        2.74325
H         -2.14380        2.40528        3.30707
H         -2.84946        2.57523        1.67666
C         -1.04027       -0.10558        2.94729
H         -0.22745       -0.75433        2.59960
H         -0.71141        0.39639        3.87184
H         -1.90398       -0.74033        3.19980
C         -3.13315        0.89899       -2.01110
O         -3.51656       -0.39322       -1.98011
C         -4.35081       -0.90664       -2.97428
H         -4.53535       -1.95546       -2.70966
H         -5.31681       -0.37272       -3.01650
H         -3.87562       -0.86491       -3.97067
C         -1.88520        2.65331       -0.95830
O         -1.03108        3.04387        0.02052
C         -0.98189        4.39338        0.38459
H         -0.43337        4.43955        1.33406
H         -1.99432        4.81017        0.52371
H         -0.44463        5.01120       -0.35791
C         -2.27945        3.54286       -1.96835
H         -1.92851        4.57471       -1.95886
C         -3.52452        1.77179       -3.02984
H         -4.15440        1.42310       -3.84740
C         -3.09925        3.09646       -2.99521
H         -3.40177        3.78437       -3.78807
C         -4.56173       -0.24304        0.71233
O         -4.60644        1.06960        0.41723
C         -5.81973        1.69652        0.13538
H         -5.57016        2.71341       -0.19541
H         -6.36848        1.18444       -0.67459
H         -6.47329        1.75761        1.02402
C         -3.23549       -2.19594        1.15582
O         -2.01967       -2.75459        1.30409
C         -1.92442       -4.12177        1.59452
H         -0.85690       -4.36470        1.59538
H         -2.42046       -4.73552        0.82440
H         -2.35419       -4.35780        2.58378
C         -4.40625       -2.92981        1.40833
H         -4.35075       -3.97684        1.69978
C         -5.73329       -0.96818        0.96077
H         -6.70742       -0.48389        0.90634
C         -5.64250       -2.31197        1.29785
H         -6.55225       -2.88400        1.49596
H          2.54684       -2.91492        0.21133
C          3.93591       -2.27569        1.70383
H          4.20995       -3.29423        2.02696
H          4.68309       -1.94576        0.96883
H          3.99630       -1.61287        2.57708
C          1.49579       -2.89405        2.04954
H          1.58052       -2.49756        3.06742
H          0.47670       -2.68909        1.69634
H          1.63590       -3.98645        2.09681
C          4.57470        0.19038       -0.78795
O          4.71070        0.82177        0.39249
C          5.63098        1.86080        0.53679
H          5.44346        2.30376        1.52383
H          6.67450        1.50042        0.49661
H          5.49381        2.63891       -0.23477
C          3.42186       -1.47570       -2.07560
O          2.44501       -2.40122       -2.11170
C          2.34050       -3.28160       -3.19358
H          1.47836       -3.92441       -2.97605
H          3.24459       -3.90681       -3.29865
H          2.16254       -2.74562       -4.14202
C          4.37477       -1.35989       -3.09671
H          4.31796       -1.98895       -3.98389
C          5.52709        0.32519       -1.80718
H          6.37422        0.99987       -1.68806
C          5.40646       -0.44015       -2.96016
H          6.14948       -0.34055       -3.75512
C          2.19841        2.04985        0.60249
O          2.27746        1.98683       -0.73914
C          2.14353        3.14174       -1.51333
H          2.20371        2.81942       -2.56021
H          1.16872        3.62659       -1.34336
H          2.95397        3.86619       -1.31767
C          2.17387        0.84846        2.67619
O          2.19553       -0.33522        3.32452
C          2.18804       -0.36581        4.72092
H          2.21486       -1.42526        5.00864
H          1.27391        0.09046        5.13836
H          3.07092        0.14150        5.14773
C          2.13538        2.06343        3.37758
H          2.10949        2.07266        4.46592
C          2.17293        3.26642        1.28877
H          2.18707        4.20908        0.74352
C          2.13165        3.26210        2.67847
H          2.10395        4.20766        3.22544
