78
Cat185.ts34.5.log	Energy: -2489596.4923970
C          0.62495       -3.23430       -0.19740
H          0.26768       -3.81212       -1.05437
H          1.69508       -3.34441        0.00699
C         -0.26308       -2.98277        0.87254
H         -1.30391       -3.32024        0.81676
H          0.13676       -3.00560        1.89268
H         -0.15333       -1.31073        1.17405
Co        -0.00978       -1.31266       -0.29803
O          1.54510        0.80236        1.50554
C          3.19256       -1.14632        0.55312
C          2.33041        1.01974       -1.11788
O         -1.87860        1.05181       -1.39976
C         -3.34383       -0.93477       -0.16871
C         -1.92271        1.02725        1.26180
P         -1.71439       -0.07822       -0.18422
P          1.71110       -0.14859        0.15334
C          0.04266       -1.45681       -2.02428
O          0.15465       -1.53488       -3.17025
C          2.18135        2.05893        1.74092
H          2.25150        2.60023        0.78071
C          3.57995        1.89285        2.30580
H          4.22532        1.31277        1.63227
H          3.54992        1.37709        3.27794
H          4.04391        2.87957        2.45595
C          1.26821        2.83207        2.66821
H          0.27254        2.94125        2.21878
H          1.15415        2.30043        3.62521
H          1.67780        3.83295        2.87079
C          3.91174       -1.79344       -0.46182
H          3.67120       -1.59714       -1.51048
C          3.48572       -1.45487        1.88650
H          2.90882       -0.97751        2.68132
C          4.93004       -2.69107       -0.15585
H          5.50481       -3.19367       -0.93593
C          4.49865       -2.35532        2.20759
H          4.74269       -2.59902        3.24331
C          5.21320       -2.95749        1.17962
F          6.18583       -3.81662        1.47834
C          3.68195        1.34569       -1.29717
H          4.44613        0.86798       -0.68002
C          1.37221        1.64439       -1.92949
H          0.31340        1.39925       -1.80767
C          4.07353        2.27057       -2.26045
H          5.12257        2.52955       -2.41492
C          1.74929        2.58027       -2.88749
H          1.01339        3.07489       -3.52433
C          3.09765        2.87819       -3.04273
F          3.46592        3.76468       -3.96359
C         -2.93127        1.14916       -2.35830
H         -3.89110        0.92707       -1.85891
C         -2.72034        0.16001       -3.48745
H         -2.72325       -0.87376       -3.11592
H         -1.75351        0.33694       -3.98117
H         -3.52233        0.25452       -4.23488
C         -2.94762        2.58567       -2.84114
H         -3.12444        3.28242       -2.00891
H         -1.98421        2.84276       -3.30794
H         -3.74287        2.73230       -3.58670
C         -4.49878       -0.39302        0.41249
H         -4.45693        0.58415        0.89978
C         -3.41705       -2.19994       -0.76394
H         -2.50597       -2.62701       -1.19361
C         -5.70321       -1.08916        0.38435
H         -6.61170       -0.68400        0.83378
C         -4.61496       -2.90672       -0.80521
H         -4.68668       -3.89302       -1.26711
C         -5.74429       -2.33758       -0.22822
F         -6.89258       -3.00678       -0.25384
C         -2.26930        2.37294        1.11410
H         -2.36449        2.78871        0.11003
C         -1.76722        0.50612        2.55187
H         -1.47385       -0.53831        2.68416
C         -2.48130        3.18326        2.22898
H         -2.74820        4.23704        2.13006
C         -1.98254        1.29872        3.67291
H         -1.86904        0.90526        4.68459
C         -2.34101        2.63123        3.49527
F         -2.54262        3.39624        4.56556
