96
Cat158.ts34.5.log	Energy: -2388524.7163455
C         -0.10485       -3.59181        0.54887
H          0.32265       -4.01252        1.46323
H         -1.16502       -3.81821        0.39475
C          0.73306       -3.38295       -0.56205
H          1.80207       -3.61034       -0.50560
H          0.31378       -3.52549       -1.56359
H          0.52561       -1.70257       -1.05606
Co         0.33112       -1.60394        0.40722
O         -1.47243       -0.03924       -1.67440
C         -2.93455       -1.88479       -0.35677
C         -2.25410        0.58135        0.88475
O          2.23352        0.90446        1.28077
C          3.54217       -0.88619       -0.26735
C          1.67872        1.00992       -1.27032
P          1.87389       -0.20220        0.08153
P         -1.52694       -0.73343       -0.16692
C          0.28597       -1.54380        2.13658
O          0.18194       -1.49140        3.28687
C         -2.43137        0.87020       -2.17977
H         -2.50096        0.67402       -3.26402
H         -3.43244        0.67007       -1.75617
C         -2.01907        2.30855       -1.94136
H         -1.98321        2.50151       -0.85774
H         -0.98929        2.43350       -2.31040
C         -2.94250        3.31565       -2.60787
H         -3.97490        3.16922       -2.24263
H         -2.97823        3.12276       -3.69562
C         -2.51415        4.75291       -2.35723
H         -2.50815        4.97919       -1.27898
H         -1.49371        4.93296       -2.73264
H         -3.18556        5.47375       -2.84828
C         -3.30688       -2.35911       -1.61675
H         -2.81935       -1.95308       -2.50629
C         -3.54678       -2.44213        0.77556
H         -3.25257       -2.10304        1.77334
C         -4.28700       -3.34341       -1.74317
H         -4.56883       -3.69626       -2.73940
C         -4.52320       -3.42108        0.64230
H         -4.99262       -3.83711        1.53860
C         -4.91492       -3.88966       -0.62090
C         -5.96887       -4.95014       -0.74962
H         -5.66761       -5.87575       -0.23343
H         -6.91970       -4.62508       -0.29780
H         -6.16352       -5.19982       -1.80197
C         -3.62605        0.85579        0.95272
H         -4.33715        0.21344        0.42760
C         -1.37203        1.40979        1.58855
H         -0.29892        1.20443        1.55231
C         -4.09605        1.94314        1.68297
H         -5.17071        2.14403        1.71746
C         -1.84788        2.49661        2.31481
H         -1.14118        3.13559        2.85126
C         -3.21622        2.78572        2.37369
C         -3.72773        3.93968        3.18434
H         -3.96021        3.62089        4.21438
H         -2.98294        4.74567        3.25279
H         -4.65069        4.35700        2.75614
C          2.94197        0.49801        2.43574
H          2.47020       -0.39661        2.87894
H          3.97576        0.22368        2.16038
C          2.94897        1.63054        3.43898
H          3.52877        1.29426        4.31652
H          3.50063        2.48670        3.01198
C          1.55867        2.07459        3.86799
H          0.98660        1.19699        4.21550
H          1.02716        2.44300        2.97688
C          1.57152        3.15021        4.94080
H          2.06403        2.79614        5.86093
H          2.11481        4.04784        4.60296
H          0.55103        3.46186        5.21254
C          3.89631       -2.08806        0.35372
H          3.15281       -2.59128        0.97918
C          4.49361       -0.23125       -1.05754
H          4.23784        0.71289       -1.54479
C          5.17028       -2.62429        0.19028
H          5.43079       -3.56128        0.69066
C          5.76255       -0.77681       -1.22570
H          6.49413       -0.25410       -1.84877
C          6.12323       -1.98237       -0.60912
C          7.48252       -2.57990       -0.82442
H          8.25398       -1.80219       -0.92337
H          7.76724       -3.24522        0.00318
H          7.50426       -3.17933       -1.75006
C          1.81796        2.38389       -1.06092
H          2.04448        2.74800       -0.05798
C          1.39603        0.55162       -2.56214
H          1.26460       -0.51802       -2.74277
C          1.67314        3.27703       -2.12208
H          1.77639        4.35017       -1.93761
C          1.27351        1.44516       -3.61834
H          1.05849        1.06537       -4.62114
C          1.39990        2.82691       -3.41693
C          1.19743        3.79002       -4.54926
H          1.62491        3.40720       -5.48792
H          0.12218        3.96070       -4.72857
H          1.65349        4.76724       -4.33599
