102
Cat182.ts34.5.log	Energy: -2249706.9500209
C         -0.78891       -2.34483       -2.19091
H         -0.58789       -3.38187       -1.90645
H         -1.80412       -2.18495       -2.56843
C          0.27368       -1.58000       -2.74510
H          1.27137       -2.02697       -2.81360
H          0.05455       -0.93094       -3.60200
H          0.17978       -0.14861       -1.95449
Co        -0.12252       -1.04196       -0.80932
O         -2.15167        1.56461       -1.28224
C         -3.48673       -0.65076       -0.96961
C         -2.11406        0.76729        1.31508
O          1.19726        0.76497        1.40159
C          2.89428       -1.34641        0.64180
C          2.48362        1.13471       -1.01566
P          1.61028       -0.12186        0.04977
P         -1.89878        0.14307       -0.42615
C         -0.17498       -2.28168        0.39154
O         -0.21638       -3.10855        1.20120
C         -1.10991        2.34715       -1.82614
H         -0.34155        1.66348       -2.23996
C         -0.45652        3.21392       -0.76261
H         -0.03547        2.59246        0.04178
H         -1.19020        3.90643       -0.32193
H          0.36053        3.81240       -1.19517
C         -1.70645        3.15539       -2.96070
H         -2.16637        2.48782       -3.70344
H         -2.48617        3.83335       -2.58025
H         -0.93347        3.75897       -3.45989
H         -3.26627       -0.76368       -2.04979
C         -4.76405        0.18180       -0.87106
H         -4.58468        1.19676       -1.25405
H         -5.05594        0.28039        0.18832
C         -5.90126       -0.49795       -1.62934
H         -6.82542        0.09699       -1.54174
H         -5.65076       -0.52539       -2.70556
C         -6.13583       -1.91960       -1.12883
H         -6.92752       -2.41102       -1.71792
H         -6.50620       -1.87648       -0.08810
C         -4.85401       -2.74611       -1.16358
H         -4.54667       -2.90057       -2.21415
H         -5.03214       -3.74920       -0.74284
C         -3.71909       -2.05590       -0.41247
H         -3.98461       -1.99109        0.65549
H         -2.79661       -2.65149       -0.46698
H         -1.08723        1.11375        1.53037
C         -2.41466       -0.34025        2.32671
H         -1.73614       -1.19517        2.19044
H         -3.43812       -0.71974        2.16382
C         -2.31431        0.19044        3.75430
H         -2.55682       -0.60903        4.47341
H         -1.26757        0.48044        3.95447
C         -3.21958        1.39746        3.97325
H         -3.09501        1.79280        4.99489
H         -4.27391        1.07526        3.89250
C         -2.95583        2.48763        2.93987
H         -1.94240        2.90079        3.09374
H         -3.65551        3.32783        3.08171
C         -3.06533        1.94695        1.51737
H         -4.10408        1.62610        1.34019
H         -2.85977        2.73485        0.78020
C          1.95054        1.22122        2.52201
H          2.99636        1.39955        2.22359
C          1.91566        0.19072        3.63637
H          2.39381       -0.75123        3.33605
H          0.87402       -0.03129        3.91159
H          2.43954        0.56767        4.52773
C          1.34654        2.54355        2.95475
H          1.37613        3.27711        2.13603
H          0.29524        2.40539        3.24753
H          1.89444        2.95847        3.81382
H          2.36717       -1.78664        1.51028
C          4.26881       -0.86081        1.11020
H          4.18787       -0.04732        1.84342
H          4.82093       -0.44796        0.24868
C          5.07761       -2.00677        1.71643
H          6.06714       -1.63950        2.03441
H          4.56759       -2.35680        2.63247
C          5.22600       -3.17257        0.74723
H          5.76835       -4.00395        1.22601
H          5.84433       -2.85155       -0.11099
C          3.86824       -3.63916        0.23638
H          3.28770       -4.07341        1.07004
H          3.99129       -4.44267       -0.50778
C          3.07287       -2.48870       -0.36869
H          3.60279       -2.11323       -1.26057
H          2.08736       -2.83105       -0.71431
H          1.61944        1.65335       -1.46472
C          3.25443        0.49265       -2.17165
H          2.63376       -0.26529       -2.67083
H          4.14104       -0.03324       -1.77851
C          3.71253        1.54590       -3.17557
H          4.28324        1.06896       -3.98882
H          2.82411        2.00519       -3.64584
C          4.54509        2.62980       -2.50170
H          4.83891        3.40181       -3.23117
H          5.48446        2.18337       -2.12727
C          3.79092        3.25838       -1.33634
H          2.90888        3.79881       -1.72564
H          4.41710        4.01219       -0.83188
C          3.32210        2.21175       -0.32744
H          4.20135        1.76063        0.16173
H          2.73136        2.70310        0.45804
