90
Cat189.ts34.5.log	Energy: -2339229.1031887
C         -0.79104       -2.81355       -1.53194
H         -0.48399       -3.76068       -1.07944
H         -1.85601       -2.74689       -1.77720
C          0.14647       -2.07960       -2.27976
H          1.17665       -2.43594       -2.38335
H         -0.20871       -1.51387       -3.14768
H          0.19087       -0.44309       -1.61602
Co        -0.12720       -1.23876       -0.41413
O         -1.54157        1.52901       -1.16937
C         -3.28636       -0.57715       -1.06918
C         -2.33382        0.72279        1.31045
O          1.98910       -0.10222        1.81538
C          3.21947       -1.13974       -0.37131
C          1.99181        1.40838       -0.31839
P          1.67043       -0.31728        0.19072
P         -1.76563        0.11483       -0.32509
C         -0.43141       -2.22218        0.97581
O         -0.71509       -2.86108        1.89680
C         -2.11510        2.79780       -0.85056
H         -2.19117        2.88354        0.24716
C         -3.50325        2.95700       -1.44167
H         -4.18845        2.17942       -1.07725
H         -3.47058        2.89743       -2.54065
H         -3.91996        3.93699       -1.16288
C         -1.14172        3.84588       -1.34544
H         -0.16155        3.71433       -0.86854
H         -1.00861        3.75909       -2.43512
H         -1.51392        4.85641       -1.11913
C         -3.62122       -0.28486       -2.39380
H         -3.05322        0.47394       -2.93546
C         -3.98930       -1.58433       -0.39324
H         -3.69965       -1.84988        0.62872
C         -4.66857       -0.96737       -3.01190
H         -4.93065       -0.73603       -4.04756
C         -5.04540       -2.26951       -0.99731
C         -5.81348       -3.31945       -0.24782
H         -5.99697       -4.20585       -0.87366
H         -5.27597       -3.64284        0.65460
H         -6.79796       -2.93780        0.07006
C         -5.37803       -1.94441       -2.32049
H         -6.19616       -2.47542       -2.81527
C         -3.67343        0.95673        1.63939
H         -4.46496        0.70977        0.92867
C         -1.33463        1.04846        2.23613
H         -0.28958        0.84391        1.98679
C         -3.99573        1.51341        2.87536
H         -5.04231        1.69390        3.13343
C         -1.64252        1.63217        3.46862
C         -0.55976        1.99151        4.44403
H         -0.47147        1.22884        5.23515
H          0.41674        2.06271        3.94560
H         -0.76922        2.95193        4.93835
C         -2.99048        1.85564        3.77612
H         -3.25472        2.30647        4.73715
C          2.24060       -1.22776        2.66063
H          1.95385       -2.15138        2.12582
C          1.37648       -1.09785        3.89752
H          0.31163       -1.06388        3.63122
H          1.63472       -0.17918        4.44574
H          1.53521       -1.95683        4.56623
C          3.72201       -1.28528        2.98529
H          4.32333       -1.40061        2.07324
H          4.03336       -0.35827        3.49150
H          3.93711       -2.13369        3.65251
C          3.19333       -2.52876       -0.51805
H          2.24734       -3.05658       -0.36484
C          4.41969       -0.44827       -0.57392
H          4.44007        0.63878       -0.45729
C          4.36182       -3.21595       -0.84357
H          4.34510       -4.30368       -0.94776
C          5.59570       -1.12116       -0.91444
C          6.87496       -0.37241       -1.15319
H          6.79534        0.67280       -0.82337
H          7.71836       -0.83691       -0.61970
H          7.13420       -0.36488       -2.22467
C          5.54929       -2.51731       -1.04028
H          6.46142       -3.06228       -1.30060
C          2.35320        2.39902        0.59802
H          2.41766        2.14837        1.65755
C          1.92199        1.72344       -1.67925
H          1.62409        0.95128       -2.39491
C          2.64791        3.68423        0.14223
H          2.93119        4.46102        0.85706
C          2.23139        3.00035       -2.15028
C          2.12411        3.32783       -3.61060
H          2.27193        2.43600       -4.23615
H          1.12457        3.73093       -3.84539
H          2.86149        4.08648       -3.91112
C          2.59860        3.97922       -1.21704
H          2.84096        4.98775       -1.56387
