88
Cat101.ts34.5.log	Energy: -2244841.7630649
C          0.10344        2.53514       -0.78036
H          0.99609        2.76491       -1.37090
H         -0.83583        2.91506       -1.19006
C          0.22523        2.35741        0.60514
H          1.20412        2.50965        1.06399
H         -0.61735        2.61844        1.25202
H          0.19481        0.68029        1.12320
Co         0.00153        0.52722       -0.35536
C         -1.90277       -1.55433        1.70744
C         -2.75663        1.21793        1.08959
C         -3.16401       -1.01269       -0.78845
C          2.27407       -1.50108       -1.86585
C          3.17590        1.07412       -0.73836
C          2.75375       -1.28729        0.98545
P          2.02570       -0.32368       -0.42096
P         -1.92205       -0.24123        0.35431
C         -0.23183        0.38712       -2.05094
O         -0.35608        0.33466       -3.20106
H         -1.15010       -1.16501        2.41590
C         -3.19630       -1.83706        2.45896
H         -3.00455       -2.58481        3.24618
H         -3.62399       -0.94920        2.94359
H         -3.95440       -2.26370        1.78576
C         -1.37529       -2.85463        1.10600
H         -0.47491       -2.70008        0.49823
H         -1.12584       -3.56998        1.90550
H         -2.13834       -3.32018        0.46385
C         -2.63957        1.44848        2.46788
H         -2.15800        0.70231        3.10277
C         -3.31100        2.22870        0.26922
C         -3.41716        2.09661       -1.22270
H         -4.28417        1.48930       -1.52503
H         -2.53082        1.60267       -1.64352
H         -3.52140        3.08506       -1.69149
C         -3.10335        2.62336        3.05286
H         -3.00102        2.77268        4.13030
C         -3.77270        3.40055        0.87951
H         -4.20378        4.18181        0.24706
C         -3.68533        3.60356        2.25414
H         -4.05357        4.53271        2.69516
C         -2.59625       -1.72546       -1.85566
H         -1.51296       -1.71783       -1.97503
C         -4.57317       -1.02421       -0.64140
C         -5.35081       -0.29189        0.41872
H         -5.65926        0.70432        0.06188
H         -4.79015       -0.12929        1.34128
H         -6.26814       -0.84683        0.66302
C         -3.36433       -2.43769       -2.76930
H         -2.87913       -2.97820       -3.58495
C         -5.32879       -1.74341       -1.58039
H         -6.41703       -1.75035       -1.47056
C         -4.74823       -2.44280       -2.63182
H         -5.37698       -2.99035       -3.33814
H          1.86204       -0.93429       -2.71695
C          3.68705       -1.94271       -2.20826
H          3.66826       -2.53575       -3.13738
H          4.37333       -1.09970       -2.36656
H          4.10154       -2.58766       -1.42028
C          1.37096       -2.70918       -1.64692
H          0.34247       -2.39480       -1.42756
H          1.35898       -3.34648       -2.54486
H          1.72453       -3.32166       -0.80218
C          3.39742        1.44705       -2.07406
H          2.98151        0.84042       -2.88090
C          3.66972        1.90631        0.29369
C          3.47509        1.61813        1.75687
H          4.24394        0.92890        2.13951
H          2.50668        1.14678        1.96939
H          3.54395        2.54729        2.34048
C          4.12365        2.58618       -2.40462
H          4.28158        2.84478       -3.45420
C          4.39508        3.04991       -0.06366
H          4.77775        3.69306        0.73398
C          4.63340        3.39258       -1.39064
H          5.20273        4.29358       -1.63031
C          1.78381       -1.77516        1.87242
H          0.75352       -1.47155        1.68910
C          4.11177       -1.59883        1.22548
C          5.28155       -1.07693        0.43552
H          4.99231       -0.39789       -0.37011
H          5.85963       -1.90466       -0.00283
H          5.96694       -0.52796        1.10088
C          2.10322       -2.58884        2.95203
H          1.31632       -2.95287        3.61703
C          4.41498       -2.41950        2.32316
H          5.46497       -2.66061        2.51430
C          3.43689       -2.92147        3.17380
H          3.71956       -3.55868        4.01543
