108
Cat173.ts34.5.log	Energy: -2487123.4627704
C         -0.90065       -4.60052       -0.64155
H         -0.76052       -5.34739        0.14516
H         -1.91419       -4.59642       -1.05835
C          0.19059       -4.32337       -1.51947
H          1.16264       -4.79589       -1.33455
H         -0.01610       -4.22910       -2.59240
H          0.13878       -2.68849       -1.63143
Co        -0.09485       -2.83089       -0.17170
O         -1.56314       -0.21681       -1.26780
C         -3.42511       -2.22695       -0.65840
C         -2.06421       -0.64309        1.44313
O          1.40143       -0.38624        1.15056
C          3.15106       -2.33890        0.07899
C          1.72176       -0.35171       -1.57681
P          1.51281       -1.46236       -0.10220
P         -1.75604       -1.48502       -0.20444
C          0.13315       -3.31358        1.48047
O          0.25621       -3.58549        2.59710
C         -2.62047        0.58152       -1.76642
H         -2.97269        0.14666       -2.72197
H         -3.46882        0.57778       -1.06923
C         -2.17621        2.00985       -1.97363
H         -1.82390        2.40217       -1.00737
H         -1.31710        2.04099       -2.66531
C         -3.30720        2.88883       -2.48843
H         -4.18015        2.77289       -1.82107
H         -3.63614        2.53365       -3.48154
C         -2.92363        4.35737       -2.56503
H         -2.64486        4.73925       -1.56982
H         -2.05834        4.50995       -3.22970
H         -3.75030        4.97703       -2.94482
H         -3.40445       -2.30360       -1.75753
H         -3.31804       -3.25415       -0.27941
C         -4.71714       -1.64974       -0.16617
C         -5.17500       -1.95139        1.12550
H         -4.61015       -2.64914        1.74972
C         -5.50410       -0.80801       -0.95975
H         -5.19065       -0.59946       -1.98589
C         -6.34485       -1.37893        1.61541
H         -6.68499       -1.61983        2.62536
C         -6.67647       -0.21289       -0.48232
C         -7.45102        0.73362       -1.35305
H         -6.91348        1.68993       -1.46618
H         -7.59526        0.32319       -2.36397
H         -8.44053        0.95620       -0.92994
C         -7.08470       -0.50146        0.82429
H         -7.99857       -0.04855        1.21787
H         -2.87610       -1.19582        1.93839
H         -1.14068       -0.84670        2.00061
C         -2.33122        0.83189        1.45421
C         -1.26231        1.72527        1.58232
H         -0.24824        1.32887        1.66210
C         -3.62747        1.35238        1.34330
H         -4.47348        0.66619        1.26085
C         -1.49076        3.10060        1.59147
H         -0.64715        3.78730        1.69996
C         -3.87124        2.72781        1.32973
C         -5.26906        3.25667        1.17963
H         -6.00125        2.43782        1.13932
H         -5.54163        3.91794        2.01728
H         -5.37206        3.84989        0.25606
C         -2.78242        3.60168        1.45716
H         -2.95318        4.68211        1.45783
C          2.26365       -0.14468        2.24027
H          1.64502       -0.18218        3.15373
H          3.00610       -0.95469        2.34264
C          2.94927        1.19965        2.11903
H          3.49857        1.23678        1.16438
H          2.17726        1.98259        2.04514
C          3.88889        1.50547        3.27464
H          4.66599        0.72176        3.34027
H          3.33680        1.45433        4.22999
C          4.55260        2.86643        3.13788
H          5.12364        2.93365        2.19813
H          3.80207        3.67232        3.11677
H          5.24350        3.07146        3.96956
H          3.19789       -2.66514        1.13052
H          2.95489       -3.25576       -0.49694
C          4.43230       -1.71531       -0.38134
C          4.88425       -1.94308       -1.68863
H          4.30620       -2.59040       -2.35402
C          5.21366       -0.91402        0.45632
H          4.89514       -0.74770        1.48720
C          6.06937       -1.36802       -2.13865
H          6.41374       -1.55989       -3.15772
C          6.40118       -0.31869        0.02100
C          7.17912        0.58028        0.93638
H          6.76591        1.60245        0.91646
H          7.13346        0.23319        1.97897
H          8.23569        0.64605        0.64042
C          6.82179       -0.55581       -1.29254
H          7.75317       -0.10894       -1.65086
H          2.35435       -0.90440       -2.28910
H          0.70454       -0.30386       -1.99143
C          2.23334        1.03338       -1.32467
C          1.34110        2.00588       -0.86005
H          0.29832        1.73300       -0.69667
C          3.56849        1.39393       -1.53642
H          4.27308        0.64701       -1.90810
C          1.78181        3.29996       -0.60196
H          1.07301        4.04991       -0.24109
C          4.02818        2.69004       -1.27820
C          5.46021        3.06345       -1.53537
H          6.08713        2.17077       -1.66669
H          5.55285        3.67398       -2.44891
H          5.87531        3.65967       -0.70793
C          3.11799        3.63993       -0.79895
H          3.46033        4.65724       -0.58816
