66
Cat123.ts34.5.log	Energy: -2047074.7646655
C         -0.79386       -3.05838        0.07210
H         -0.64972       -3.63839        0.98758
H         -1.82488       -3.01799       -0.28840
C          0.27665       -2.97088       -0.84606
H          1.23294       -3.44315       -0.60313
H          0.04891       -2.99011       -1.91736
H          0.44569       -1.31745       -1.20419
Co         0.04944       -1.22084        0.22483
O         -1.65453        1.03326       -1.49362
O         -2.97947       -0.97750       -0.68735
O         -2.37178        0.86537        0.84287
O          1.90925        1.09988        1.51487
O          3.18309       -0.30344       -0.03492
O          1.43493        1.32751       -0.88647
P          1.61719        0.14414        0.20830
P         -1.67360       -0.09328       -0.28124
C         -0.03562       -1.41071        1.94680
O         -0.16200       -1.52727        3.08805
C         -1.07604        0.71274       -2.73476
H         -0.01607        0.43623       -2.62318
H         -1.61843       -0.10896       -3.23480
H         -1.13976        1.60914       -3.36794
C         -4.26371       -0.38985       -0.94456
H         -4.12901        0.69754       -1.06855
C         -5.16360       -0.65320        0.24527
H         -4.72453       -0.21005        1.14906
H         -5.28097       -1.73639        0.40445
H         -6.16021       -0.21450        0.08374
C         -4.78446       -0.98198       -2.23726
H         -4.10329       -0.75681       -3.07075
H         -4.87314       -2.07596       -2.14955
H         -5.77592       -0.57135       -2.48075
C         -1.59816        1.84226        1.54775
H         -0.52782        1.59584        1.43493
C         -1.96131        1.74154        3.01363
H         -1.73535        0.73652        3.39696
H         -3.03544        1.93758        3.15694
H         -1.39210        2.47599        3.60306
C         -1.85818        3.20817        0.94511
H         -1.60536        3.19821       -0.12373
H         -2.92084        3.47720        1.05009
H         -1.25142        3.97627        1.44826
C          2.58999        0.61320        2.64995
H          2.04293       -0.21125        3.13393
H          3.60135        0.26893        2.38364
H          2.66680        1.44590        3.36233
C          3.54811       -1.53149       -0.66365
H          2.73789       -1.83209       -1.35074
C          3.72011       -2.60181        0.39547
H          2.78118       -2.72052        0.95662
H          4.51541       -2.31711        1.10165
H          3.98618       -3.56888       -0.05746
C          4.80458       -1.26854       -1.46622
H          4.62681       -0.48833       -2.22045
H          5.61659       -0.92880       -0.80524
H          5.13444       -2.18301       -1.98130
C          2.37221        2.40326       -1.03749
H          3.27928        2.16089       -0.45975
C          1.74519        3.66843       -0.49020
H          1.51056        3.53964        0.57507
H          0.81244        3.89558       -1.02844
H          2.43120        4.52192       -0.60078
C          2.72577        2.49057       -2.50730
H          3.16714        1.54448       -2.85302
H          1.82517        2.69207       -3.10765
H          3.45075        3.29871       -2.68606
