90
Cat188.ts34.5.log	Energy: -2339224.0997921
C         -0.62317       -2.94854       -1.23225
H         -0.05538       -3.78725       -0.81859
H         -1.70990       -3.07724       -1.22294
C         -0.02217       -2.11432       -2.18158
H          1.00406       -2.31184       -2.50971
H         -0.65161       -1.64670       -2.94560
H          0.13624       -0.38603       -1.56977
Co        -0.06896       -1.17103       -0.34071
O         -2.20460        0.95787       -1.61479
C         -3.39839       -1.07766       -0.51956
C         -2.28991        1.08482        1.10000
O          1.85270        0.18865        1.79954
C          3.34682       -1.06087       -0.15190
C          1.99473        1.47692       -0.54020
P          1.74685       -0.19783        0.17985
P         -1.90546       -0.03349       -0.30831
C         -0.16879       -2.08640        1.12123
O         -0.24841       -2.71723        2.08582
C         -1.24260        1.93767       -2.00456
H         -0.30700        1.75408       -1.45199
C         -1.75325        3.32175       -1.65383
H         -1.92752        3.40962       -0.57213
H         -2.69819        3.53251       -2.17907
H         -1.01253        4.08176       -1.94334
C         -0.97511        1.75920       -3.48468
H         -0.56620        0.75762       -3.68373
H         -1.90793        1.87320       -4.05903
H         -0.24940        2.50567       -3.83956
C         -3.86283       -1.27248       -1.82782
H         -3.40484       -0.70065       -2.63642
C         -3.98548       -1.79908        0.54261
C         -3.57039       -1.63157        1.97602
H         -3.94463       -0.68257        2.39163
H         -2.48090       -1.62045        2.10157
H         -3.96967       -2.45056        2.59023
C         -4.89991       -2.15948       -2.10128
H         -5.24609       -2.29269       -3.12905
C         -5.02857       -2.68349        0.24219
H         -5.49047       -3.24117        1.06173
C         -5.48760       -2.87021       -1.05892
H         -6.30149       -3.57233       -1.25531
C         -1.28849        1.21279        2.06760
H         -0.37042        0.63025        1.96108
C         -3.48335        1.83536        1.21677
C         -4.61345        1.73410        0.23458
H         -5.18619        0.80542        0.38924
H         -4.24632        1.70716       -0.79910
H         -5.30523        2.58008        0.35151
C         -1.44067        2.06747        3.15678
H         -0.64407        2.15109        3.90015
C         -3.61079        2.69242        2.31591
H         -4.52632        3.28231        2.41617
C         -2.60922        2.81232        3.27840
H         -2.74670        3.49323        4.12229
C          2.83382       -0.21856        2.75112
H          3.82426       -0.23896        2.26711
C          2.53259       -1.60575        3.28054
H          2.55633       -2.34919        2.47140
H          1.53598       -1.63965        3.74336
H          3.28304       -1.89655        4.03121
C          2.83932        0.83956        3.83622
H          3.07477        1.82828        3.41568
H          1.85074        0.89496        4.31789
H          3.58707        0.60119        4.60707
C          3.20139       -2.42205       -0.44820
H          2.18700       -2.83131       -0.45016
C          4.63913       -0.48578       -0.13424
C          4.91343        0.96288        0.15890
H          4.23316        1.38236        0.90983
H          4.78887        1.58215       -0.74369
H          5.94644        1.09125        0.51224
C          4.29727       -3.23084       -0.73150
H          4.15588       -4.29029       -0.95649
C          5.72857       -1.31770       -0.42451
H          6.73366       -0.88671       -0.40979
C          5.57023       -2.66866       -0.72356
H          6.44728       -3.28185       -0.94504
C          1.70858        2.58371        0.26840
H          1.43729        2.41616        1.31174
C          2.32598        1.67017       -1.89792
C          2.63754        0.53090       -2.82427
H          1.97022       -0.32388       -2.65093
H          3.66571        0.16234       -2.67794
H          2.53581        0.84200       -3.87331
C          1.75928        3.87810       -0.24025
H          1.52434        4.72662        0.40647
C          2.37912        2.98135       -2.38594
H          2.64087        3.13856       -3.43627
C          2.10111        4.07899       -1.57517
H          2.14480        5.08893       -1.98999
