78
Cat186.ts34.5.log	Energy: -3393914.7032012
C          0.79951       -3.39669        0.83153
H          0.82778       -4.17148        0.06032
H          1.74708       -3.28471        1.36888
C         -0.42459       -3.14531        1.49766
H         -1.33163       -3.67933        1.19800
H         -0.40353       -2.92723        2.57094
H         -0.57339       -1.42668        1.47488
Co        -0.00003       -1.67968        0.12984
O          1.87438        0.47776        1.87693
C          3.35633       -1.06853        0.26571
C          1.81337        1.07849       -0.66459
O         -1.55407        0.18501       -1.86696
C         -3.28246       -1.04186       -0.11676
C         -1.66472        1.16711        0.67226
P         -1.58630       -0.36957       -0.31441
P          1.66860       -0.36551        0.45777
C          0.11153       -2.29535       -1.49050
O          0.21590       -2.69353       -2.56884
C          1.24125        0.10308        3.09345
H          0.19636       -0.17689        2.86412
C          1.24357        1.33014        3.97992
H          0.73642        2.16732        3.48114
H          2.27585        1.63499        4.21180
H          0.72310        1.12387        4.92697
C          1.94222       -1.08592        3.72278
H          1.93717       -1.95067        3.04333
H          2.99045       -0.84267        3.95479
H          1.44056       -1.38333        4.65603
C          4.43033       -0.58871        1.02277
H          4.25587        0.20431        1.75272
C          3.58351       -2.08504       -0.66720
H          2.75258       -2.47798       -1.25723
C          5.70869       -1.11173        0.85504
H          6.54884       -0.74339        1.44622
C          4.85986       -2.60795       -0.85449
H          5.04040       -3.39900       -1.58400
C          5.91587       -2.11906       -0.08696
Cl         7.50462       -2.77451       -0.30171
C          1.56692        0.89968       -2.02972
H          1.31442       -0.08892       -2.41812
C          2.10948        2.35922       -0.18757
H          2.28983        2.50087        0.87896
C          1.60540        1.97908       -2.90569
H          1.40566        1.84406       -3.96956
C          2.13762        3.45009       -1.05218
H          2.35249        4.45425       -0.68228
C          1.87425        3.25319       -2.40694
Cl         1.86000        4.61070       -3.48462
C         -2.60987        0.89246       -2.52769
H         -3.22193        1.41741       -1.77054
C         -3.47686       -0.08605       -3.29851
H         -3.96624       -0.80793       -2.63191
H         -2.85670       -0.64375       -4.01659
H         -4.25903        0.45099       -3.85566
C         -1.96660        1.91570       -3.44229
H         -1.33499        2.62257       -2.88738
H         -1.33268        1.40823       -4.18475
H         -2.73840        2.48754       -3.97803
C         -3.45930       -2.40882       -0.36110
H         -2.58134       -3.01792       -0.59157
C         -4.40452       -0.25955        0.18421
H         -4.29171        0.80787        0.38786
C         -4.72381       -2.98650       -0.32698
H         -4.86250       -4.05073       -0.52374
C         -5.67560       -0.82428        0.22910
H         -6.55171       -0.21707        0.46235
C         -5.82769       -2.18648       -0.03093
Cl        -7.40482       -2.89274        0.02163
C         -1.15384        2.36349        0.16386
H         -0.77935        2.40032       -0.85986
C         -2.10672        1.12993        2.00203
H         -2.50153        0.20000        2.42109
C         -1.08757        3.50590        0.95794
H         -0.67533        4.43506        0.56173
C         -2.05091        2.26303        2.80421
H         -2.39264        2.23632        3.84006
C         -1.53377        3.44742        2.27512
Cl        -1.41915        4.84929        3.28347
