96
Cat159.ts34.5.log	Energy: -2388498.5762338
C          1.19130       -0.94692       -3.16684
H          0.76497       -0.48890       -4.06414
H          2.28518       -0.93989       -3.12628
C          0.48623       -1.98805       -2.53390
H         -0.48250       -2.31263       -2.92835
H          1.05926       -2.80035       -2.07375
H          0.33137       -1.55129       -0.83828
Co         0.29364       -0.22350       -1.48143
O          1.64460       -0.97484        1.23557
C          3.48671       -0.67294       -0.73817
C          2.31869        1.61276        0.68640
O         -1.99809        1.34706        0.21996
C         -3.08514       -0.42997       -1.48752
C         -1.84647       -1.13854        1.03920
P         -1.57437       -0.12368       -0.46284
P          1.90787       -0.01111       -0.08847
C          0.15398        1.27120       -2.34603
O          0.13049        2.26447       -2.93653
C          2.23475       -0.88325        2.51420
H          3.14335       -1.51486        2.55051
H          2.53592        0.15407        2.73393
C          1.20822       -1.35066        3.52365
H          1.64426       -1.28464        4.53566
H          0.37228       -0.63658        3.48813
C          0.71477       -2.76337        3.24050
H          1.54124       -3.46681        3.44346
H          0.49714       -2.84893        2.16401
C         -0.51527       -3.19651        4.03076
H         -0.44233       -2.84518        5.07635
H         -1.72010       -0.79256        4.37526
H         -0.52579       -4.29835        4.08752
C          3.85989       -1.96959       -0.36327
H          3.25740       -2.49660        0.38015
C          4.21991        0.00381       -1.73845
C          3.83660        1.37423       -2.21379
H          4.01200        2.14103       -1.44268
H          2.76589        1.42513       -2.46180
H          4.41056        1.65483       -3.10751
C          4.97466       -2.58763       -0.92370
H          5.25480       -3.59648       -0.61121
C          5.33643       -0.63635       -2.28760
H          5.91270       -0.11564       -3.05767
C          5.72221       -1.91336       -1.88569
H          6.59905       -2.38502       -2.33564
C          1.21907        2.48074        0.73965
H          0.27230        2.13341        0.32270
C          3.55001        2.02237        1.25498
C          4.79608        1.18252        1.29550
H          5.31650        1.17791        0.32548
H          4.59513        0.13168        1.53536
H          5.49369        1.58068        2.04559
C          1.30523        3.74284        1.31650
H          0.42773        4.39244        1.34473
C          3.61608        3.30458        1.81868
H          4.56370        3.63221        2.25518
C          2.51983        4.16129        1.84997
H          2.61644        5.15206        2.30081
C         -2.25696        2.46939       -0.60620
H         -1.31885        3.02666       -0.77664
H         -2.62978        2.14742       -1.59348
C         -3.28268        3.35627        0.06692
H         -3.48826        4.20708       -0.60613
H         -4.23037        2.79777        0.15745
C         -2.85286        3.86780        1.43415
H         -1.92115        4.45060        1.32330
H         -2.59414        3.00552        2.07038
C         -3.91240        4.71715        2.11599
H         -4.17077        5.60097        1.51042
H         -4.84109        4.14464        2.27162
H         -3.57498        5.07557        3.10036
C         -2.85124       -0.58689       -2.85771
H         -1.81496       -0.52843       -3.20111
C         -4.41224       -0.46385       -0.99847
C         -4.76734       -0.30435        0.45192
H         -4.17784        0.48879        0.92754
H         -4.56277       -1.23116        1.01225
H         -5.83671       -0.07504        0.56124
C         -3.89124       -0.79889       -3.75851
H         -3.68044       -0.91864       -4.82361
C         -5.44387       -0.67478       -1.92119
H         -6.47438       -0.70057       -1.55567
C         -5.19700       -0.84758       -3.28179
H         -6.03135       -1.01116       -3.96848
C         -1.84021       -0.53333        2.24215
H         -1.68792        0.54705        2.29863
C         -2.06970       -2.60193        0.95428
C         -2.26840       -3.26980       -0.37477
H         -1.49914       -2.96443       -1.09770
H         -3.23903       -3.00587       -0.82225
H         -2.22663       -4.36251       -0.26747
C         -2.18827       -1.26677        3.49764
H         -3.27874       -1.12476        3.64070
C         -2.10027       -3.32771        2.09054
H         -2.22844       -4.41312        2.01113
C         -1.88856       -2.77070        3.46868
H         -2.62411       -3.25381        4.13434
