62
Cat176.ts34.5.log	Energy: -1858313.7807910
C         -0.69283       -3.28557       -0.92637
H         -0.20965       -4.09942       -0.37803
H         -1.78451       -3.37183       -0.95470
C         -0.02369       -2.74432       -2.06659
H          0.98747       -3.08992       -2.30946
H         -0.61265       -2.54891       -2.97135
H         -0.25766       -1.14870       -1.87339
Co         0.06795       -1.49444       -0.46561
O         -1.85948        1.02778       -0.68080
C         -3.28949       -1.22362        0.05611
C         -1.61396        0.20376        1.92734
O          1.63416        0.91376        0.72635
C          3.22045       -0.39941       -1.14562
C          1.09118        1.30991       -1.97901
P          1.48715        0.05785       -0.69143
P         -1.64456       -0.39144        0.17866
C          0.83395       -2.15800        0.94027
O          1.30180       -2.59214        1.90525
C         -2.64932        2.15366       -0.32552
H         -3.32849        1.89448        0.50495
C         -3.48438        2.53101       -1.53412
H         -4.12750        1.69208       -1.83776
H         -2.82890        2.77771       -2.38340
H         -4.12176        3.40235       -1.32011
C         -1.73782        3.27948        0.13019
H         -1.12743        2.96208        0.98680
H         -1.05563        3.57071       -0.68386
H         -2.32088        4.16538        0.42493
H         -3.13328       -2.18320        0.57790
C         -4.54838       -0.53843        0.56456
H         -4.80856        0.34475       -0.03596
H         -4.45083       -0.21572        1.61271
H         -3.39056       -1.48844       -1.00985
H         -5.40903       -1.22435        0.51629
H         -2.39905        0.95780        2.10087
C         -1.72750       -0.91837        2.94973
H         -0.95212       -1.68245        2.80122
H         -2.70717       -1.41898        2.90424
H         -0.63987        0.71090        2.01983
H         -1.60978       -0.52441        3.97091
C          2.65567        1.83065        1.09970
H          3.26551        2.09772        0.21862
C          3.54993        1.17637        2.13644
H          4.05350        0.29210        1.72194
H          2.94679        0.84903        2.99683
H          4.32046        1.87714        2.49208
C          1.98453        3.08602        1.62277
H          1.33692        3.53196        0.85447
H          1.35853        2.84305        2.49520
H          2.73136        3.83409        1.92843
H          3.89436        0.45470       -0.96527
C          3.73686       -1.66205       -0.47630
H          3.11075       -2.52474       -0.74517
H          3.71384       -1.58481        0.62045
H          3.19063       -0.53592       -2.24048
H          4.77330       -1.87458       -0.78036
H          0.05316        1.59931       -1.75416
C          1.98904        2.51970       -2.17792
H          3.03718        2.24289       -2.37086
H          1.97162        3.18943       -1.30613
H          1.03164        0.70927       -2.90361
H          1.64746        3.11114       -3.04201
