82
Cat191.ts34.5.log	Energy: -2429377.5828133
C         -0.65511       -3.34941       -0.89264
H         -0.40886       -4.20010       -0.25215
H         -1.69675       -3.30724       -1.22394
C          0.35300       -2.80739       -1.72465
H          1.37674       -3.18834       -1.65776
H          0.08193       -2.48796       -2.73736
H          0.21768       -1.17797       -1.49526
Co        -0.00452       -1.60834       -0.09478
O         -1.67141        1.17495       -0.53317
O         -2.80582       -0.97526       -1.34055
O         -2.64576       -0.35529        1.16052
O          1.74965        0.96209        0.94577
O          2.90799       -1.30413        1.05433
O          2.46137       -0.05773       -1.18800
P          1.72252       -0.50449        0.21091
P         -1.72218       -0.43426       -0.19781
C         -0.05271       -2.37378        1.46886
O         -0.11602       -2.87879        2.49824
C         -0.72587        1.71070       -1.46492
H          0.20634        1.12705       -1.38345
C         -0.44854        3.13597       -1.04184
H         -0.03948        3.15549       -0.02181
H         -1.37215        3.73478       -1.06396
H          0.28365        3.60026       -1.71880
C         -1.24618        1.58949       -2.88402
H         -1.46931        0.54129       -3.13045
H         -2.16798        2.17601       -3.01949
H         -0.49362        1.95946       -3.59619
C         -4.14341       -0.70022       -1.44975
C         -4.62839        0.60463       -1.55852
H         -3.92990        1.43968       -1.53011
C         -5.02201       -1.78352       -1.46862
H         -4.61247       -2.79231       -1.38770
C         -6.00112        0.81667       -1.65052
H         -6.37988        1.83949       -1.71147
C         -6.39250       -1.55943       -1.57246
H         -7.07836       -2.41011       -1.58173
C         -6.88844       -0.25900       -1.65584
H         -7.96413       -0.08396       -1.72640
C         -3.75895        0.39310        1.45656
C         -4.94961       -0.28622        1.71203
H         -4.96197       -1.37390        1.63013
C         -3.69900        1.78289        1.55713
H         -2.75820        2.29266        1.35619
C         -6.09667        0.43275        2.03129
H         -7.03205       -0.10151        2.21297
C         -4.85474        2.49183        1.87914
H         -4.81149        3.58161        1.94930
C         -6.05671        1.82502        2.11026
H         -6.95961        2.38800        2.35671
C          1.52740        1.15828        2.35012
H          2.07493        0.36650        2.89347
C          0.05343        1.08570        2.69449
H         -0.37644        0.09970        2.48270
H         -0.50997        1.82935        2.11275
H         -0.09316        1.29702        3.76392
C          2.12530        2.50845        2.68942
H          3.18593        2.56325        2.40597
H          1.58945        3.30617        2.15221
H          2.04244        2.70342        3.76846
C          4.26422       -1.11649        0.98048
C          4.86827        0.07702        1.37583
H          4.25299        0.90055        1.73341
C          5.03773       -2.17793        0.51076
H          4.53593       -3.10296        0.22082
C          6.24945        0.21388        1.26764
H          6.71754        1.15686        1.55879
C          6.41936       -2.03353        0.41419
H          7.02335       -2.86503        0.04295
C          7.02977       -0.83557        0.78472
H          8.11261       -0.72139        0.70067
C          3.52193        0.78776       -1.41398
C          4.66742        0.24878       -1.99772
H          4.69726       -0.82081       -2.20953
C          3.44034        2.15155       -1.13338
H          2.53178        2.55277       -0.68757
C          5.75495        1.07364       -2.26542
H          6.65761        0.64527       -2.70697
C          4.53738        2.96701       -1.40567
H          4.47912        4.03442       -1.17848
C          5.69840        2.43449       -1.96384
H          6.55533        3.07948       -2.17001
