84
Cat156.ts34.5.log	Energy: -2538893.9131953
C         -0.15237       -3.62875        0.11705
H          0.29627       -4.15580        0.96352
H         -1.22080       -3.81985       -0.02619
C          0.65214       -3.29428       -0.98391
H          1.71869       -3.53856       -0.99106
H          0.20012       -3.29585       -1.98096
H          0.48933       -1.53134       -1.26225
Co         0.29830       -1.63364        0.19980
O         -1.54201        0.09232       -1.71643
C         -2.99653       -1.79674       -0.45443
C         -2.22017        0.57080        0.90564
O          2.25168        0.69939        1.37784
C          3.52567       -0.89798       -0.39353
C          1.69128        1.14229       -1.13112
P          1.86947       -0.24045        0.05106
P         -1.55506       -0.68757       -0.25229
C          0.23966       -1.77730        1.92478
O          0.12946       -1.85603        3.07224
C         -2.49792        1.05292       -2.13156
H         -2.62924        0.90759       -3.21774
H         -3.48201        0.86586       -1.66552
C         -2.01529        2.46139       -1.85554
H         -1.93466        2.61566       -0.76754
H         -0.99253        2.54223       -2.25192
C         -2.89201        3.54175       -2.46838
H         -3.89919        3.50677       -2.01616
H         -3.03661        3.33229       -3.54366
C         -2.29615        4.93098       -2.30039
H         -2.15319        5.17484       -1.23541
H         -1.31061        4.99542       -2.78898
H         -2.94007        5.70855       -2.73821
C         -3.56802       -2.41372        0.66799
H         -3.22117       -2.14754        1.67078
C         -3.43163       -2.17739       -1.72831
H         -2.97223       -1.72222       -2.60864
C         -4.57310       -3.36402        0.52594
H         -5.03192       -3.84780        1.39017
C         -4.43714       -3.12968       -1.88558
H         -4.79162       -3.43218       -2.87271
C         -4.99744       -3.70785       -0.75421
F         -5.95943       -4.61704       -0.89562
C         -3.58431        0.87247        1.02409
H         -4.32275        0.28820        0.47020
C         -1.29834        1.31374        1.65495
H         -0.23383        1.07452        1.58822
C         -4.01998        1.90695        1.84643
H         -5.07834        2.15362        1.94822
C         -1.71878        2.35218        2.47961
H         -1.01307        2.93859        3.07042
C         -3.07631        2.63855        2.55904
F         -3.48513        3.62975        3.34558
C          2.95655        0.13495        2.46902
H          2.47670       -0.80748        2.78676
H          3.98757       -0.10779        2.15657
C          2.97468        1.12112        3.61564
H          3.56716        0.67083        4.43125
H          3.52052        2.02801        3.30087
C          1.59102        1.49917        4.12208
H          1.02875        0.58147        4.36648
H          1.04044        1.97368        3.29515
C          1.62088        2.43128        5.32134
H          2.13274        1.96661        6.17947
H          2.15455        3.36730        5.08918
H          0.60506        2.69999        5.64952
C          4.49049       -0.15265       -1.08258
H          4.25286        0.85495       -1.43187
C          3.85088       -2.18416        0.05276
H          3.09298       -2.75409        0.59819
C          5.75214       -0.68458       -1.33131
H          6.51612       -0.12333       -1.87257
C          5.11112       -2.72652       -0.17972
H          5.38186       -3.72655        0.16378
C          6.04397       -1.96632       -0.87584
F          7.24830       -2.47747       -1.11342
C          1.80556        2.47615       -0.72636
H          2.00666        2.69731        0.32250
C          1.44064        0.85997       -2.47952
H          1.32708       -0.17613       -2.80752
C          1.66702        3.51353       -1.64686
H          1.73791        4.56009       -1.34530
C          1.32518        1.88394       -3.41266
H          1.13027        1.68025       -4.46690
C          1.43228        3.20137       -2.97845
F          1.27880        4.18958       -3.86010
