88
Cat166.ts34.5.log	Energy: -3631967.8628362
C          0.22581       -2.20516       -2.69207
H          1.14498       -2.77763       -2.84293
H         -0.70501       -2.77391       -2.76616
C          0.22407       -0.82836       -2.91944
H          1.13839       -0.35548       -3.29091
H         -0.70475       -0.31495       -3.18624
H          0.38995        0.16003       -1.41801
Co         0.29017       -1.21190       -0.87867
O         -1.19556        0.76204        1.12888
O         -2.22087        0.56665       -1.23072
O         -2.62211       -1.16256        0.62429
O          2.98180       -1.50365        0.94913
O          3.34965       -0.70296       -1.38707
O          2.42800        0.83169        0.43254
P          2.17822       -0.69936       -0.20871
P         -1.37152       -0.29502       -0.08132
C          0.13112       -2.80320       -0.19799
O          0.01801       -3.86746        0.21747
C         -2.21710        1.27370        1.99622
H         -2.23331        2.36562        1.85152
H         -3.19695        0.87713        1.70025
C         -1.92020        0.91806        3.43480
H         -2.78156        1.25155        4.04025
H         -1.88483       -0.18054        3.52628
C         -0.63946        1.52942        3.98217
H         -0.69574        2.62896        3.88997
H          0.20050        1.21176        3.34539
C         -0.36263        1.14489        5.42567
H         -1.17464        1.47493        6.09335
H         -0.27352        0.05208        5.53453
H          0.57298        1.59268        5.79351
C         -3.14856        1.53906       -0.97367
C         -2.73553        2.86967       -0.93643
H         -1.68202        3.10090       -1.09391
C         -4.48929        1.20823       -0.77730
H         -4.79895        0.16223       -0.81629
C         -3.65902        3.87895       -0.68622
H         -3.33828        4.92136       -0.65552
C         -5.41706        2.21549       -0.52578
H         -6.46952        1.97506       -0.36746
C         -4.99693        3.54501       -0.47593
Cl        -6.15273        4.79574       -0.15635
C         -3.08650       -2.32233        0.07642
C         -3.26975       -2.47390       -1.30085
H         -3.05325       -1.64278       -1.97378
C         -3.38185       -3.37647        0.94151
H         -3.22363       -3.24010        2.01245
C         -3.73305       -3.68550       -1.80848
H         -3.87651       -3.81643       -2.88224
C         -3.85407       -4.58214        0.43691
H         -4.08279       -5.41323        1.10566
C         -4.02273       -4.73492       -0.93953
Cl        -4.59879       -6.24112       -1.57224
C          3.04599       -1.11947        2.32150
H          3.79592       -1.78908        2.76957
H          3.42321       -0.08877        2.38824
C          1.70641       -1.25601        3.01551
H          1.78039       -0.78161        4.00935
H          0.96354       -0.66473        2.45207
C          1.22412       -2.69418        3.14957
H          1.83622       -3.21452        3.90683
H          1.40631       -3.22241        2.20188
C         -0.24916       -2.79584        3.50617
H         -0.46946       -2.29957        4.46556
H         -0.86990       -2.31383        2.73398
H         -0.57506       -3.84352        3.58724
C          4.67711       -0.46902       -1.12364
C          5.51509       -1.54073       -0.81743
H          5.09171       -2.54424       -0.76005
C          5.18743        0.82655       -1.18846
H          4.52252        1.65939       -1.42160
C          6.86836       -1.32019       -0.58451
H          7.53535       -2.15017       -0.34634
C          6.54138        1.05207       -0.95582
H          6.95365        2.06095       -1.00613
C          7.37564       -0.02280       -0.65430
Cl         9.06135        0.25527       -0.36279
C          1.81829        1.96403        0.00180
C          1.73136        2.29412       -1.35402
H          2.16608        1.63156       -2.10439
C          1.28602        2.82764        0.96079
H          1.35769        2.55182        2.01265
C          1.09496        3.47025       -1.74697
H          1.01433        3.72969       -2.80366
C          0.65839        4.00434        0.57486
H          0.23139        4.67755        1.31992
C          0.55729        4.31701       -0.78129
Cl        -0.27440        5.76067       -1.26797
