82
Cat142.ts34.5.log	Energy: -2429276.6167468
C          0.48948       -2.77407       -0.22967
H          1.55058       -2.96162       -0.03600
H         -0.19238       -3.41523        0.33595
C          0.07114       -2.26721       -1.47239
H          0.81632       -2.13178       -2.26234
H         -0.93588       -2.48672       -1.84427
H          0.25875       -0.49414       -1.43140
Co        -0.02696       -0.81244       -0.01899
O         -1.53758        1.41081       -1.72236
C         -3.05504       -0.74915       -1.20012
C         -2.53454        1.32174        0.82719
O          1.58581        1.25050        1.74443
C          3.09900       -0.85112        0.99194
C          2.53903        1.37312       -0.81954
P          1.75806        0.25083        0.41367
P         -1.74716        0.30951       -0.48565
C         -0.51440       -1.22680        1.59234
O         -0.81392       -1.51673        2.66786
C         -2.49086        2.40358       -2.01976
H         -3.48514        1.97250       -2.21997
H         -2.58543        3.12753       -1.19286
H         -2.13747        2.93558       -2.91523
C         -3.23167       -0.84845       -2.57794
H         -2.66103       -0.18210       -3.22902
C         -3.74925       -1.64134       -0.35983
O         -3.50142       -1.49771        0.95520
C         -3.99815       -2.42957        1.87237
H         -5.09937       -2.38500        1.94453
H         -3.55763       -2.16976        2.84259
H         -3.69768       -3.45811        1.60724
C         -4.10735       -1.79014       -3.12557
H         -4.23698       -1.85178       -4.20825
C         -4.62413       -2.58522       -0.89829
H         -5.16807       -3.27159       -0.24817
C         -4.80216       -2.65079       -2.28339
H         -5.48807       -3.39306       -2.69896
C         -1.67577        1.80245        1.81945
H         -0.61182        1.55334        1.76330
C         -3.90677        1.64254        0.90855
O         -4.70061        1.19865       -0.08419
C         -6.08856        1.32513        0.01860
H         -6.47305        0.85294        0.93947
H         -6.51104        0.80604       -0.85137
H         -6.41090        2.38141       -0.00103
C         -2.14911        2.57679        2.87824
H         -1.45664        2.93745        3.64138
C         -4.38713        2.40077        1.98126
H         -5.44799        2.64095        2.05602
C         -3.50650        2.86442        2.95831
H         -3.89742        3.45842        3.78849
C          2.54085        2.21452        2.11730
H          3.53234        1.76681        2.29222
H          2.64359        2.99671        1.34591
H          2.18410        2.68239        3.04677
C          3.32102       -1.06044        2.35063
H          2.75188       -0.46920        3.07171
C          3.78540       -1.65315        0.06206
O          3.47977       -1.42021       -1.23369
C          4.07491       -2.19449       -2.23310
H          5.17296       -2.07558       -2.24488
H          3.66956       -1.83719       -3.18821
H          3.83296       -3.26582       -2.11748
C          4.24158       -2.01443        2.79115
H          4.40662       -2.16145        3.86069
C          4.70794       -2.60745        0.49184
H          5.24667       -3.22536       -0.22738
C          4.93558       -2.77902        1.86034
H          5.65634       -3.53058        2.19158
C          1.68470        1.92475       -1.77736
H          0.62316        1.66298       -1.74931
C          3.90868        1.71586       -0.86893
O          4.70632        1.20346        0.08691
C          6.09154        1.36865        0.01096
H          6.49695        0.98219       -0.94058
H          6.51683        0.78920        0.84049
H          6.38938        2.42668        0.12038
C          2.15429        2.78620       -2.76901
H          1.46070        3.20175       -3.50293
C          4.38720        2.56170       -1.87564
H          5.44603        2.81712       -1.92354
C          3.50866        3.09370       -2.81874
H          3.89808        3.75649       -3.59591
