78
Cat131.ts34.5.log	Energy: -2240617.1922113
C          0.32172       -2.53493        2.55944
H          0.08454       -3.57182        2.30630
H          1.26945       -2.39479        3.08854
C         -0.74847       -1.63852        2.82430
H         -1.78095       -1.97517        2.67751
H         -0.64763       -0.93659        3.66037
H         -0.33467       -0.29494        1.99320
Co         0.08239       -1.30327        0.98707
O          2.75024       -0.38882        2.44413
C          3.27391       -0.90096       -0.16887
C          1.94663        1.49581        0.66946
O         -0.68895       -0.13588       -1.82276
C         -2.79734       -1.33874       -0.60842
C         -2.01729        1.29947        0.11667
P         -1.29709       -0.34085       -0.28402
P          1.96198       -0.30956        0.97458
C          0.22087       -2.66595       -0.07972
O          0.33425       -3.57284       -0.78283
C          4.13272       -0.15704        2.57248
H          4.72239       -0.97051        2.11810
H          4.44475        0.79365        2.10581
H          4.35877       -0.11286        3.64821
C          3.48437       -2.28398       -0.22804
H          2.85128       -2.95465        0.35735
C          4.09292       -0.05623       -0.92517
H          3.94615        1.02560       -0.87247
C          4.49862       -2.80088       -1.02874
H          4.66287       -3.88047       -1.06799
C          5.10288       -0.56247       -1.75036
C          5.94365        0.35708       -2.58840
H          5.92064        1.38631       -2.20283
H          6.99245        0.02634       -2.62347
H          5.57741        0.38676       -3.62826
C          5.29693       -1.94796       -1.78773
H          6.08608       -2.36372       -2.42091
C          2.17164        2.40638        1.70590
H          2.47618        2.04326        2.68949
C          1.50080        1.96867       -0.57193
H          1.27031        1.25091       -1.36483
C          1.97765        3.77013        1.48507
H          2.16319        4.48201        2.29371
C          1.28114        3.32873       -0.79724
C          0.70570        3.80658       -2.09780
H          1.11614        4.78383       -2.39241
H          0.89501        3.09139       -2.91068
H         -0.38783        3.92377       -2.00652
C          1.53880        4.22783        0.24631
H          1.37360        5.29730        0.08832
C         -1.38772        0.49067       -2.86914
H         -2.38441        0.04402       -3.02877
H         -1.51063        1.57102       -2.68524
H         -0.79344        0.35268       -3.78417
C         -2.78642       -2.29496       -1.63043
H         -1.92035       -2.37469       -2.29144
C         -3.89785       -1.27259        0.25471
H         -3.90799       -0.52945        1.05796
C         -3.87519       -3.14826       -1.79053
H         -3.86981       -3.88791       -2.59504
C         -4.99134       -2.13133        0.11121
C         -6.14994       -2.06760        1.06414
H         -6.05375       -2.83419        1.85110
H         -6.20786       -1.08990        1.56347
H         -7.10575       -2.24852        0.55029
C         -4.96765       -3.06740       -0.93049
H         -5.81693       -3.74301       -1.06585
C         -1.37579        2.11764        1.04836
H         -0.48810        1.75250        1.56676
C         -3.16185        1.78282       -0.53669
H         -3.69236        1.13919       -1.24306
C         -1.86053        3.39879        1.30592
H         -1.34603        4.03299        2.03122
C         -3.65992        3.06395       -0.29133
C         -4.88327        3.56987       -1.00008
H         -4.64828        4.44575       -1.62611
H         -5.31837        2.79857       -1.65081
H         -5.65868        3.88474       -0.28408
C         -2.98680        3.86869        0.63917
H         -3.36099        4.87547        0.84740
