68
Cat147.ts34.5.log	Energy: -1907609.0727759
C         -3.50283       -1.31450       -0.33946
H         -3.83755       -2.02757        0.41935
H         -4.15549       -0.43984       -0.42928
C         -2.87218       -1.82039       -1.51475
H         -2.66963       -2.89341       -1.59857
H         -3.14628       -1.38208       -2.48205
H         -1.61224       -0.76805       -1.70369
Co        -1.53169       -0.97200       -0.23878
O         -0.40822        1.78842       -1.30142
C         -2.99813        2.07702       -0.33788
C         -0.71432        1.89185        1.42179
O          1.53804       -0.45870        0.14588
C          1.06185       -3.14615       -0.20240
C          0.99465       -1.28343       -2.41816
P          0.48064       -1.45881       -0.66298
P         -1.40932        1.15914       -0.12259
C         -1.47246       -1.65992        1.34705
O         -1.42565       -2.09374        2.41989
C          0.13023        3.09459       -1.34013
H          0.02235        3.44911       -2.38084
H         -0.44456        3.78950       -0.70772
C          1.59295        3.13621       -0.93657
H          1.93299        4.18414       -1.02663
H          1.68414        2.87298        0.13103
C          2.48965        2.22181       -1.75480
H          2.36379        2.44737       -2.82894
H          2.13759        1.19115       -1.60787
C          3.95689        2.32991       -1.37349
H          4.34933        3.34463       -1.55023
H          4.10780        2.10483       -0.30508
H          4.57977        1.62946       -1.95142
H         -3.65272        1.62814        0.42887
C         -3.05445        3.59481       -0.25985
H         -2.54604        4.06944       -1.11102
H         -2.59881        3.98133        0.66532
H         -3.39943        1.72091       -1.30155
H         -4.09952        3.94283       -0.27446
H         -0.55208        2.97573        1.30317
C         -1.55920        1.61394        2.65608
H         -1.74297        0.53802        2.78683
H         -2.53762        2.11687        2.60557
H          0.27708        1.42151        1.51386
H         -1.05172        1.97572        3.56357
C          2.82837       -0.72494        0.65245
H          2.99112       -1.80778        0.78571
H          3.58928       -0.36391       -0.06167
C          2.97254       -0.01479        1.98327
H          4.01708       -0.11458        2.32711
H          2.80346        1.06417        1.81702
C          2.01068       -0.53106        3.04439
H          2.26014       -1.58123        3.27920
H          0.99414       -0.55558        2.62090
C          2.01262        0.29780        4.31727
H          3.01147        0.32854        4.78222
H          1.71483        1.33892        4.11060
H          1.30937       -0.10590        5.06094
H          0.99640       -3.19530        0.89760
C          0.18891       -4.22444       -0.82771
H          0.26624       -4.22603       -1.92641
H         -0.86716       -4.05987       -0.56796
H          2.11944       -3.29417       -0.47437
H          0.48185       -5.22417       -0.47375
H          0.70554       -0.24935       -2.66719
C          2.44428       -1.56280       -2.77361
H          2.73799       -2.59883       -2.54456
H          3.12860       -0.89230       -2.23334
H          0.30534       -1.93130       -2.98620
H          2.61874       -1.40598       -3.84937
