116
Cat161.ts34.5.log	Energy: -2864431.9650637
C          0.18493       -3.22742       -1.04316
H         -0.38085       -3.58694       -1.90524
H          1.24144       -3.51182       -1.03959
C         -0.47352       -3.03383        0.18610
H         -1.54983       -3.21793        0.27657
H          0.08622       -3.24326        1.10520
H         -0.24314       -1.40116        0.71558
Co        -0.15498       -1.24292       -0.75081
O          1.33313        0.79830        1.19558
C          2.65613       -1.60032        0.66721
C          2.74520        0.73262       -1.09649
O         -2.42626        0.82295       -1.72990
C         -3.51580       -1.12388       -0.20133
C         -1.80368        0.93404        1.04042
P         -1.96171       -0.14107       -0.45811
P          1.58818       -0.26783       -0.03902
C         -0.05555       -1.06066       -2.46621
O          0.04121       -0.96383       -3.61363
C          2.39289        1.43074        1.88099
H          2.15353        1.37629        2.95622
H          3.33824        0.88210        1.72827
C          2.55968        2.87819        1.46013
H          2.65161        2.92169        0.36316
H          1.64293        3.43036        1.72459
C          3.77310        3.53582        2.09862
H          4.67641        2.96036        1.82777
H          3.69449        3.47015        3.19906
C          3.95191        4.98713        1.68333
H          4.06912        5.07195        0.59092
H          3.07668        5.59386        1.96735
H          4.83831        5.44253        2.15115
C          3.33564       -2.42843       -0.24906
O          3.27413       -2.02290       -1.53242
C          3.77690       -2.82926       -2.55520
H          3.52489       -2.32466       -3.49640
H          4.87384       -2.94301       -2.48985
H          3.31273       -3.83121       -2.54891
C          2.64053       -2.00630        2.01243
O          1.90981       -1.26054        2.87440
C          2.05210       -1.46240        4.24794
H          1.45827       -0.67950        4.73852
H          3.10469       -1.36957        4.56995
H          1.67182       -2.44904        4.56961
C          3.34551       -3.14463        2.43410
H          3.34363       -3.44003        3.48263
C          4.03014       -3.57099        0.15556
H          4.55909       -4.18903       -0.56938
C          4.03547       -3.91278        1.50482
H          4.57717       -4.80194        1.83573
C          2.15238        1.55974       -2.07467
O          0.81869        1.67450       -2.02237
C          0.11129        2.22561       -3.10160
H         -0.94668        2.07391       -2.85736
H          0.32703        3.30225       -3.22111
H          0.34987        1.69917       -4.04025
C          4.15300        0.72609       -1.02782
O          4.71496        0.05026       -0.00516
C          6.08032       -0.24189       -0.01781
H          6.25600       -0.92878        0.82056
H          6.70048        0.66165        0.12135
H          6.38172       -0.73914       -0.95620
C          4.93412        1.41412       -1.96471
H          6.02169        1.38849       -1.90699
C          2.92560        2.24427       -3.02339
H          2.44824        2.85308       -3.78989
C          4.30929        2.15449       -2.96203
H          4.91744        2.69007       -3.69529
C         -3.76768        1.08075       -2.09870
H         -3.73402        1.31648       -3.17618
H         -4.36796        0.16403       -1.98785
C         -4.40990        2.21947       -1.32727
H         -5.50721        2.11980       -1.40851
H         -4.17657        2.08468       -0.25815
C         -3.98500        3.60111       -1.80316
H         -4.42047        3.79086       -2.80072
H         -2.89392        3.60068       -1.93883
C         -4.38224        4.71083       -0.84515
H         -5.47370        4.74001       -0.69249
H         -3.91915        4.55549        0.14285
H         -4.07238        5.70234       -1.21086
C         -4.47857       -0.92405        0.80659
O         -4.42809        0.24276        1.47107
C         -5.11252        0.39573        2.67904
H         -4.77226        1.34725        3.10802
H         -6.20664        0.43704        2.53386
H         -4.87488       -0.41961        3.38408
C         -3.69031       -2.24006       -1.04748
O         -2.87507       -2.28947       -2.11383
C         -2.90949       -3.38472       -2.98248
H         -2.13197       -3.20066       -3.73470
H         -3.88687       -3.47410       -3.48845
H         -2.68803       -4.33024       -2.45778
C         -4.67678       -3.20324       -0.80104
H         -4.78184       -4.07410       -1.44677
C         -5.46476       -1.88462        1.06977
H         -6.18760       -1.73228        1.87065
C         -5.53991       -3.02128        0.27357
H         -6.31130       -3.76857        0.47527
C         -1.72463        0.28343        2.28685
O         -2.03751       -1.03136        2.27328
C         -1.70818       -1.84096        3.36297
H         -1.97059       -2.86727        3.07577
H         -0.62949       -1.78977        3.58152
H         -2.27973       -1.57134        4.26912
C         -1.43484        2.28852        1.00135
O         -1.40849        2.89648       -0.20153
C         -0.79214        4.14566       -0.31843
H         -0.79988        4.39858       -1.38600
H          0.25180        4.11528        0.03314
H         -1.33986        4.93506        0.22598
C         -1.09168        2.97667        2.17580
H         -0.83773        4.03481        2.13790
C         -1.35224        0.94852        3.45562
H         -1.30273        0.41951        4.40685
C         -1.04988        2.30425        3.38802
H         -0.76773        2.84401        4.29532
