108
Cat168.ts34.5.log	Energy: -2487122.8484386
C         -0.04844       -0.00097       -3.69385
H         -0.29917       -0.80550       -4.39133
H         -0.77455        0.81929       -3.67727
C          1.32205        0.31812       -3.47235
H          2.10057       -0.29554       -3.93809
H          1.61058        1.37340       -3.40140
H          1.34608        0.53701       -1.79202
Co         0.53192       -0.68828       -1.89521
O         -1.63621        1.55347       -1.16350
C         -2.75660       -0.84607       -1.99314
C         -1.70440       -0.44405        0.77650
O          1.31872       -2.25420        0.67058
C          3.51811       -1.56504       -0.86810
C          2.07664        0.29971        1.00713
P          1.83257       -1.00477       -0.29119
P         -1.33044       -0.08013       -1.02928
C          0.43095       -2.36787       -2.35759
O          0.35078       -3.47567       -2.67329
C         -2.92548        2.13910       -1.14226
H         -3.39257        2.03674       -2.14061
H         -3.57821        1.62637       -0.41697
C         -2.81052        3.60361       -0.78459
H         -2.26891        3.68889        0.17041
H         -2.19073        4.11282       -1.54273
C         -4.16889        4.27740       -0.66117
H         -4.76657        3.73559        0.09294
H         -4.71954        4.17942       -1.61395
C         -4.07254        5.74419       -0.27489
H         -3.56365        5.86456        0.69506
H         -3.49915        6.31877       -1.01998
H         -5.06670        6.20830       -0.18893
H         -3.08080       -0.05787       -2.68830
H         -2.25371       -1.60163       -2.61102
C         -3.93628       -1.44573       -1.29574
C         -5.14637       -0.74761       -1.21905
H         -5.21472        0.24342       -1.67419
C         -3.85133       -2.73785       -0.73067
C         -2.60814       -3.56894       -0.86890
H         -1.69579       -3.03960       -0.55541
H         -2.43709       -3.86028       -1.91797
H         -2.68060       -4.49053       -0.27543
C         -6.25639       -1.28312       -0.57241
H         -7.18754       -0.71398       -0.52368
C         -4.97106       -3.25561       -0.07014
H         -4.90436       -4.25163        0.37633
C         -6.16467       -2.54081        0.01793
H         -7.02266       -2.97264        0.53850
H         -2.02881       -1.49355        0.78497
H         -0.71699       -0.44064        1.25728
C         -2.68021        0.39363        1.55112
C         -3.98358       -0.07531        1.75723
H         -4.25627       -1.06194        1.38044
C         -2.31219        1.64266        2.09794
C         -0.90438        2.15179        2.01433
H         -0.51355        2.10768        0.98962
H         -0.23192        1.55890        2.65732
H         -0.83649        3.19440        2.35399
C         -4.93758        0.69062        2.42000
H         -5.94928        0.29945        2.55000
C         -3.28476        2.40311        2.75603
H         -3.00102        3.37721        3.16462
C         -4.59286        1.94848        2.90697
H         -5.33183        2.56787        3.42100
C          1.87330       -2.68242        1.90017
H          2.14979       -3.74590        1.78616
H          2.79900       -2.13392        2.14178
C          0.85237       -2.51922        3.01024
H          1.31453       -2.81818        3.96747
H          0.61248       -1.44545        3.10847
C         -0.42696       -3.30979        2.76741
H         -0.20443       -4.38853        2.84613
H         -0.74229       -3.14439        1.72552
C         -1.55690       -2.93659        3.71218
H         -1.27426       -3.09261        4.76596
H         -1.83772       -1.87684        3.59791
H         -2.45932       -3.53587        3.51755
H          3.41400       -2.66202       -0.84518
H          3.51624       -1.28405       -1.92909
C          4.79145       -1.13557       -0.20838
C          5.34090       -1.89494        0.83240
H          4.81997       -2.79868        1.16025
C          5.48389        0.00706       -0.66509
C          4.96087        0.83163       -1.80382
H          3.93482        1.18351       -1.61881
H          4.94190        0.25242       -2.74209
H          5.58852        1.71738       -1.96791
C          6.54628       -1.54196        1.43434
H          6.95529       -2.15440        2.24123
C          6.69356        0.34703       -0.05008
H          7.22915        1.23284       -0.40201
C          7.22648       -0.41097        0.98981
H          8.17419       -0.11975        1.44876
H          1.06461        0.40131        1.42607
H          2.70202       -0.13605        1.79557
C          2.59745        1.65409        0.61644
C          1.89631        2.44428       -0.30633
H          0.95358        2.07944       -0.71887
C          3.76769        2.17312        1.21172
C          4.47651        1.45672        2.32431
H          4.77335        0.43547        2.04831
H          3.83311        1.38468        3.21719
H          5.38808        1.99497        2.61562
C          2.37757        3.68674       -0.71063
H          1.81232        4.27581       -1.43659
C          4.24096        3.41868        0.78407
H          5.15633        3.81299        1.23386
C          3.57088        4.16761       -0.17987
H          3.96838        5.13567       -0.49428
