88
Cat162.ts34.5.log	Energy: -2478674.8414318
C         -0.71658       -2.68232       -2.87826
H         -0.43518       -3.73800       -2.90660
H         -1.78075       -2.48751       -3.04086
C          0.22945       -1.71046       -3.28556
H          1.24910       -2.01621       -3.53820
H         -0.11802       -0.85271       -3.87253
H          0.09899       -0.56269       -2.09961
Co         0.04338       -1.76483       -1.24363
O         -2.90317       -0.67249       -1.51401
O         -2.44135       -1.99199        0.67431
O         -1.80123        0.35330        0.53434
O          1.54738       -0.13135        1.08987
O          2.99726       -1.82381       -0.13906
O          2.28244        0.43370       -1.20558
P          1.68235       -0.84819       -0.37655
P         -1.72019       -1.00747       -0.44762
C          0.27247       -3.32848       -0.49616
O          0.38645       -4.35583        0.00142
C         -4.05042        0.15687       -1.33531
H         -4.93702       -0.46382       -1.54105
H         -4.12508        0.48791       -0.28805
C         -3.98782        1.34781       -2.26658
H         -3.03456        1.87488       -2.09983
H         -3.96998        0.99055       -3.31047
C         -5.14367        2.31378       -2.05245
H         -5.16704        2.61141       -0.98914
H         -6.10176        1.79837       -2.24392
C         -5.04198        3.55752       -2.92010
H         -4.11426        4.11071       -2.70261
H         -5.03006        3.29936       -3.99118
H         -5.88793        4.24094       -2.75140
C         -3.68313       -1.79258        1.21649
C         -4.78128       -2.43487        0.64453
H         -4.62211       -3.06745       -0.23076
C         -3.84133       -0.98528        2.34406
H         -2.96430       -0.50254        2.77578
C         -6.04802       -2.25243        1.19474
H         -6.90834       -2.75499        0.74616
C         -5.11261       -0.80941        2.88605
H         -5.23835       -0.17732        3.76857
C         -6.21935       -1.43577        2.31226
H         -7.21371       -1.29397        2.74120
C         -1.63450        1.65732        0.17997
C         -2.47935        2.58668        0.79379
H         -3.22878        2.22489        1.50087
C         -0.66152        2.08606       -0.72465
H          0.01059        1.36657       -1.18955
C         -2.35757        3.93980        0.49251
H         -3.02379        4.65987        0.97388
C         -0.55047        3.44438       -1.01930
H          0.21794        3.77102       -1.72389
C         -1.39559        4.37626       -0.41987
H         -1.30179        5.43823       -0.65625
C          1.01464       -0.87563        2.18144
H          0.01407       -1.25650        1.91284
H          1.66327       -1.74668        2.38156
C          0.94163        0.02672        3.39195
H          0.60719       -0.58632        4.24697
H          1.96035        0.37348        3.64120
C          0.01804        1.22231        3.21208
H         -0.99801        0.85905        2.98589
H          0.32931        1.78264        2.31618
C         -0.01194        2.14800        4.41534
H         -0.35544        1.62322        5.32183
H          0.98894        2.55519        4.63267
H         -0.68719        3.00064        4.24701
C          4.28531       -1.45283        0.15672
C          4.60193       -0.64646        1.25155
H          3.80793       -0.26578        1.89231
C          5.29122       -1.93536       -0.68055
H          5.00981       -2.57337       -1.52034
C          5.93084       -0.29781        1.47809
H          6.17443        0.35108        2.32240
C          6.61733       -1.58796       -0.43727
H          7.40269       -1.96452       -1.09718
C          6.94200       -0.76095        0.63759
H          7.98144       -0.48137        0.82227
C          3.21020        1.37435       -0.81411
C          4.44472        1.38608       -1.46020
H          4.65138        0.63005       -2.21884
C          2.90238        2.32469        0.15815
H          1.92399        2.30471        0.63613
C          5.39633        2.33556       -1.10123
H          6.37070        2.33267       -1.59497
C          3.86351        3.27136        0.50729
H          3.62803        4.01342        1.27407
C          5.11256        3.27727       -0.11199
H          5.86279        4.01869        0.17159
