70
Cat135.ts34.5.log	Energy: -2579745.7558248
C          0.35392        3.13459        0.64035
H          1.22689        3.64291        0.22202
H         -0.60508        3.63817        0.49030
C          0.51287        2.26119        1.72371
H          1.50788        2.12967        2.16061
H         -0.31616        2.12565        2.42579
H          0.58541        0.58398        1.26397
Co         0.24873        1.19970       -0.04096
O         -1.42102       -1.29017        1.10757
O         -2.77136        0.74677        1.01336
O         -2.19321       -0.43645       -1.18751
O          2.80479        0.81388       -1.91481
O          3.26756        0.72728        0.61233
O          2.30375       -1.25015       -0.68381
P          2.08495        0.40039       -0.52610
P         -1.45456        0.05903        0.22020
C         -0.14625        1.86193       -1.59892
O         -0.40189        2.30178       -2.62705
C         -2.44346       -1.80094        1.94649
H         -2.62261       -1.12417        2.79438
H         -3.38706       -1.94860        1.40226
H         -2.08376       -2.76988        2.31597
C         -3.08436        2.06256        0.83163
C         -3.28536        2.85350        1.96422
H         -3.18551        2.39536        2.94993
C         -3.20680        2.62366       -0.44304
H         -3.05046        2.00505       -1.32821
C         -3.60441        4.20116        1.83011
H         -3.76609        4.83778        2.70173
C         -3.51275        3.97580       -0.58105
H         -3.60055        4.43642       -1.56649
C         -3.70799        4.74910        0.55611
F         -4.00421        6.04171        0.42535
C         -3.22203       -1.34241       -1.20539
C         -4.54379       -0.91533       -1.07281
H         -4.75702        0.14680       -0.94465
C         -2.93053       -2.69683       -1.36758
H         -1.88738       -3.00079       -1.45863
C         -5.57759       -1.84817       -1.09517
H         -6.62067       -1.54333       -0.99406
C         -3.96033       -3.63247       -1.38933
H         -3.76130       -4.69864       -1.51172
C         -5.27297       -3.19557       -1.25007
F         -6.26151       -4.08867       -1.26872
C          3.64004        0.01040       -2.73142
H          4.58601       -0.23543       -2.22668
H          3.13119       -0.92194       -3.01410
H          3.85354        0.60017       -3.63250
C          4.60161        0.52270        0.37441
C          5.38026        1.58778       -0.08002
H          4.90445        2.55551       -0.24608
C          5.17888       -0.72977        0.59088
H          4.55961       -1.55615        0.94193
C          6.73732        1.40304       -0.32717
H          7.36833        2.21870       -0.68456
C          6.53654       -0.91886        0.34536
H          7.01357       -1.88732        0.50585
C          7.29875        0.14917       -0.11326
F          8.59739       -0.03168       -0.35021
C          1.65927       -2.14556        0.11982
C          1.74229       -2.07153        1.51236
H          2.32228       -1.27273        1.97753
C          0.92020       -3.16120       -0.48619
H          0.87302       -3.19650       -1.57609
C          1.06825       -3.00247        2.29702
H          1.10332       -2.95753        3.38688
C          0.25228       -4.09846        0.29497
H         -0.33907       -4.89956       -0.15219
C          0.32577       -3.99789        1.67833
F         -0.35290       -4.86860        2.43186
