98
Cat132.ts34.5.log	Energy: -2716529.1379759
C          0.34177       -2.65192       -1.49899
H         -0.07753       -2.82303       -2.49321
H          1.39939       -2.91760       -1.39710
C         -0.49639       -2.73127       -0.37212
H         -1.56528       -2.94541       -0.48063
H         -0.06675       -3.11493        0.56011
H         -0.38257       -1.20452        0.53443
Co        -0.11781       -0.77768       -0.84787
O          1.04816        0.49012        1.79021
C          2.72540       -1.34594        0.49224
C          2.59065        1.42996       -0.24253
O         -2.35341        1.30221       -1.80289
C         -3.50850       -0.75565       -0.52592
C         -1.98066        1.29816        0.95676
P         -1.95826        0.26272       -0.57729
P          1.49949        0.02182        0.27133
C          0.21052       -0.25506       -2.46213
O          0.48205        0.06663       -3.53912
C          1.87551        1.15688        2.70445
H          2.71556        0.52393        3.02846
H          2.27554        2.09238        2.27830
H          1.24791        1.41019        3.57132
C          3.45174       -1.70593       -0.66061
O          3.27958       -0.88825       -1.71695
C          3.73086       -1.26277       -2.98572
H          3.32114       -0.52446       -3.68608
H          4.83344       -1.25317       -3.04892
H          3.36200       -2.26456       -3.26630
C          2.82689       -2.19082        1.60953
O          2.08312       -1.87388        2.69697
C          2.15919       -2.67609        3.83655
H          1.48046       -2.23188        4.57690
H          3.17887       -2.69903        4.26095
H          1.83669       -3.71363        3.63687
C          3.66763       -3.31460        1.59132
H          3.75246       -3.95879        2.46541
C          4.29045       -2.82398       -0.69225
H          4.85202       -3.07428       -1.59193
C          4.39441       -3.61708        0.44555
H          5.04618       -4.49378        0.43725
C          3.95660        1.51840        0.09887
O          4.40402        0.66064        1.03658
C          5.77257        0.40768        1.16486
H          5.86525       -0.45765        1.83465
H          6.23069        0.15544        0.19329
H          6.31428        1.26294        1.60660
C          2.08030        2.40117       -1.13003
O          0.76069        2.38104       -1.35650
C          0.22862        3.08103       -2.45140
H         -0.82331        2.77902       -2.50224
H          0.73978        2.79817       -3.38606
H          0.30391        4.17324       -2.30868
C          2.92422        3.34428       -1.73691
H          2.52282        4.07073       -2.44178
C          4.80340        2.45941       -0.49815
H          5.85916        2.50525       -0.23276
C          4.27583        3.35442       -1.42159
H          4.93208        4.09103       -1.89205
C         -3.64580        1.84580       -1.89649
H         -4.33926        1.12915       -2.36836
H         -4.04910        2.13281       -0.91186
H         -3.58378        2.74736       -2.52463
C         -4.53058       -0.69859        0.44019
O         -4.53650        0.36538        1.26137
C         -5.24808        0.32021        2.46271
H         -4.93418        1.19979        3.04036
H         -6.33998        0.36742        2.30211
H         -5.00820       -0.59006        3.03873
C         -3.62078       -1.74433       -1.52784
O         -2.72558       -1.66293       -2.52685
C         -2.68153       -2.64902       -3.51625
H         -1.85685       -2.37382       -4.18596
H         -3.61850       -2.68717       -4.09940
H         -2.48145       -3.64743       -3.08959
C         -4.61491       -2.72959       -1.47987
H         -4.67232       -3.50380       -2.24389
C         -5.52373       -1.68619        0.50537
H         -6.29426       -1.64604        1.27479
C         -5.54422       -2.69826       -0.44597
H         -6.32107       -3.46539       -0.39863
C         -1.82637        2.69632        1.00270
O         -1.93528        3.38352       -0.15469
C         -1.71637        4.76100       -0.15826
H         -1.84293        5.09412       -1.19664
H         -2.44340        5.30037        0.47512
H         -0.69501        5.01570        0.17580
C         -1.88047        0.60001        2.17301
O         -2.05785       -0.73730        2.09105
C         -1.44068       -1.56520        3.04122
H         -1.56750       -2.59448        2.68094
H         -1.91822       -1.48313        4.03371
H         -0.36621       -1.33216        3.11267
C         -1.64566        1.24245        3.38931
H         -1.57345        0.67040        4.31388
C         -1.57922        3.35155        2.21919
H         -1.45640        4.43293        2.24819
C         -1.49276        2.62290        3.39828
H         -1.30095        3.14356        4.33974
