88
Cat164.ts34.5.log	Energy: -2727656.8576792
C          1.61684        1.16227       -2.78704
H          1.04218        1.63197       -3.58939
H          2.48225        1.74304       -2.45515
C          1.66704       -0.25039       -2.71372
H          1.06145       -0.85101       -3.39963
H          2.61241       -0.72683       -2.42890
H          1.39903       -0.56015       -1.09272
Co         0.41085        0.52644       -1.29236
O          1.22963        0.56325        1.76283
O          2.84879        1.93172        0.36039
O          0.70376        2.87011        0.98830
O         -2.29366       -0.33660        0.03966
O         -1.39652       -2.00800       -1.69518
O         -0.49545       -1.89112        0.68481
P         -0.90893       -0.88010       -0.57139
P          1.25099        1.42437        0.38206
C         -0.86211        1.51921       -1.96511
O         -1.69411        2.14522       -2.44918
C          1.68650        1.06211        3.01833
H          2.24919        0.23565        3.48410
H          2.38569        1.89800        2.85993
C          0.52215        1.48106        3.89201
H          0.92847        1.81605        4.86265
H          0.04184        2.36113        3.43435
C         -0.50841        0.38159        4.10536
H         -0.02351       -0.48598        4.58906
H         -0.84783        0.02563        3.11847
C         -1.69647        0.83111        4.93947
H         -1.38422        1.14795        5.94744
H         -2.20851        1.68848        4.47322
H         -2.43881        0.02720        5.05735
C          3.85548        1.12221       -0.08193
C          3.94614       -0.22887        0.26820
H          3.18939       -0.68060        0.91125
C          4.83639        1.69870       -0.89315
H          4.74862        2.75618       -1.14917
C          5.01194       -0.99710       -0.19949
H          5.10893       -2.04936        0.07153
C          5.90201        0.93544       -1.35747
H          6.67842        1.36770       -1.99111
C          5.97501       -0.40849       -1.00737
F          6.99479       -1.14378       -1.45250
C         -0.18477        3.64189        0.29237
C          0.26127        4.47257       -0.73504
H          1.32553        4.49106       -0.97660
C         -1.53833        3.59101        0.62289
H         -1.86582        2.91570        1.41508
C         -0.64994        5.25659       -1.43621
H         -0.33245        5.91098       -2.24976
C         -2.45248        4.37707       -0.07083
H         -3.51835        4.35053        0.16082
C         -1.99608        5.19693       -1.09582
F         -2.87061        5.94364       -1.76850
C         -3.15160       -0.89848        1.03436
H         -3.90287       -1.52962        0.53227
H         -2.56324       -1.53474        1.71113
C         -3.80833        0.23960        1.78072
H         -4.45337       -0.19592        2.56395
H         -3.02585        0.81003        2.30958
C         -4.61444        1.17357        0.88950
H         -5.41209        0.59715        0.38832
H         -3.95891        1.54474        0.08486
C         -5.22080        2.34174        1.64902
H         -5.90786        1.99883        2.43939
H         -4.44150        2.94856        2.13918
H         -5.78962        3.00746        0.98223
C         -2.49187       -2.81277       -1.50546
C         -3.70707       -2.43849       -2.07978
H         -3.75466       -1.51378       -2.65737
C         -2.39424       -3.98582       -0.75680
H         -1.43633       -4.26768       -0.31735
C         -4.83547       -3.23221       -1.89691
H         -5.79905       -2.96328       -2.33326
C         -3.52134       -4.78293       -0.57179
H         -3.47574       -5.70586        0.00900
C         -4.72847       -4.39460       -1.14072
F         -5.80720       -5.15524       -0.96129
C          0.71522       -2.51154        0.77848
C          1.33074       -3.10599       -0.32671
H          0.83832       -3.08655       -1.30034
C          1.32883       -2.55393        2.03130
H          0.82809       -2.07823        2.87449
C          2.57475       -3.71665       -0.18181
H          3.08230       -4.17438       -1.03257
C          2.56634       -3.17103        2.18028
H          3.07225       -3.20754        3.14666
C          3.17875       -3.73597        1.06679
F          4.38787       -4.28835        1.19699
