96
Cat151.ts34.5.log	Energy: -2293566.5627855
C          1.43005        0.39409        2.43543
H          1.26563       -0.22764        3.31883
H          2.48577        0.56167        2.19974
C          0.48794        1.41141        2.12332
H         -0.41449        1.51510        2.73348
H          0.86343        2.38049        1.77305
H          0.23996        1.22037        0.51950
Co         0.28386       -0.21507        0.89719
O          2.99947        0.70625       -0.58585
O          3.04264       -1.57135        0.37595
O          1.95587       -1.08306       -1.87658
O         -1.49116        0.57652       -1.68416
O         -1.98651       -1.65906       -0.68161
O         -2.81354        0.51146        0.37561
P         -1.45085       -0.18810       -0.23356
P          1.97607       -0.55861       -0.31457
C         -0.07627       -1.72638        1.68976
O         -0.28971       -2.74826        2.17481
C          2.56877        1.73416       -1.45703
H          3.09706        1.62429       -2.41994
H          1.48944        1.62796       -1.67388
C          2.84749        3.08708       -0.84028
H          2.25962        3.17818        0.08973
H          3.90775        3.12356       -0.53687
C          2.53042        4.24542       -1.77437
H          1.47980        4.17116       -2.10778
H          3.13822        4.15163       -2.69136
C          2.76606        5.60657       -1.14045
H          2.14545        5.73953       -0.23956
H          3.81703        5.72652       -0.83292
H          2.52586        6.42611       -1.83452
C          4.32387       -1.84227       -0.18401
H          4.47067       -2.93209       -0.10048
H          4.32998       -1.58278       -1.25425
C          5.41030       -1.09641        0.56317
H          6.37911       -1.33539        0.08858
H          5.24479       -0.01611        0.41874
C          5.46230       -1.42114        2.04919
H          5.65883       -2.50040        2.18027
H          4.46390       -1.24422        2.48155
C          6.50560       -0.61160        2.80120
H          7.51818       -0.78858        2.40293
H          6.30565        0.46896        2.71685
H          6.52166       -0.86346        3.87259
C          0.92915       -1.91381       -2.39200
H         -0.03617       -1.38226       -2.35566
H          1.17939       -2.06059       -3.45499
C          0.81904       -3.24797       -1.68304
H          1.80946       -3.73462       -1.66418
H          0.53524       -3.06840       -0.63390
C         -0.21236       -4.16301       -2.32448
H          0.11616       -4.44035       -3.34195
H         -1.15256       -3.60066       -2.45192
C         -0.48152       -5.41411       -1.50460
H          0.43421       -6.01256       -1.37333
H         -0.84619       -5.14985       -0.49892
H         -1.23636       -6.05946       -1.97969
C         -2.06444        1.85146       -1.92022
H         -1.96050        2.02056       -3.00359
H         -3.14184        1.82362       -1.68745
C         -1.39860        2.97355       -1.14789
H         -1.47536        2.76026       -0.06949
H         -0.32194        2.98883       -1.38560
C         -2.01857        4.33293       -1.43413
H         -3.09964        4.29200       -1.21150
H         -1.94210        4.55486       -2.51339
C         -1.37822        5.45512       -0.63312
H         -1.46494        5.26835        0.44954
H         -0.30559        5.55092       -0.86405
H         -1.85184        6.42588       -0.84247
C         -3.21900       -1.85831       -1.36216
H         -3.90335       -1.02082       -1.14580
H         -3.02653       -1.86866       -2.44799
C         -3.82024       -3.16708       -0.89882
H         -4.74538       -3.34348       -1.47535
H         -3.13031       -3.98808       -1.15844
C         -4.11207       -3.20356        0.59455
H         -4.82167       -2.39393        0.84468
H         -3.18062       -2.97489        1.13763
C         -4.66490       -4.53928        1.06221
H         -5.60931       -4.78810        0.55125
H         -3.95377       -5.35512        0.85521
H         -4.86154       -4.53958        2.14490
C         -3.10090        0.52011        1.76426
H         -3.98600       -0.11756        1.93174
H         -2.25552        0.07704        2.31858
C         -3.36132        1.93726        2.22917
H         -3.57312        1.91224        3.31263
H         -2.43235        2.52261        2.11133
C         -4.49592        2.63092        1.48853
H         -5.43511        2.07658        1.66259
H         -4.30227        2.56103        0.40558
C         -4.66973        4.08651        1.88861
H         -4.87854        4.18711        2.96592
H         -3.75821        4.66866        1.67582
H         -5.49975        4.56109        1.34368
