50
Cat118.ts34.5.log	Energy: -1759701.1423858
C         -0.82746       -2.65164       -1.16107
H         -0.64800       -3.54581       -0.55686
H         -1.86771       -2.55416       -1.49238
C          0.20716       -2.20684       -2.03826
H          1.18016       -2.71065       -2.02148
H         -0.06933       -1.89272       -3.05226
H          0.17862       -0.59234       -1.80988
Co         0.04072       -1.01881       -0.39457
O         -1.74962        1.55696       -1.12634
C         -3.34630       -0.47190       -0.16163
C         -1.64486        1.07068        1.57411
O          1.73994        1.00959        1.32421
C          3.32865       -0.28557       -0.54218
C          1.54629        1.83324       -1.29483
P          1.63100        0.35343       -0.20661
P         -1.64727        0.24888       -0.07655
C          0.36742       -1.82865        1.11011
O          0.53215       -2.33960        2.13295
C         -2.92473        2.18900       -1.55459
H         -3.53895        1.53114       -2.19425
H         -3.55494        2.54909       -0.72393
H         -2.62716        3.06130       -2.15613
H         -3.44817       -0.89714       -1.17416
C         -3.55842       -1.55110        0.89091
H         -3.58926       -1.12498        1.90524
H         -2.74542       -2.29207        0.86719
H         -4.11198        0.31467       -0.06879
H         -4.50904       -2.08082        0.72702
H         -0.63840        1.51185        1.65716
C         -2.72450        2.08454        1.91065
H         -3.73897        1.66432        1.82202
H         -2.66375        2.96477        1.25369
H         -1.63832        0.23314        2.29340
H         -2.61303        2.44478        2.94558
C          2.92000        1.40467        1.97318
H          3.58253        0.54777        2.18277
H          3.49341        2.15822        1.40843
H          2.62739        1.84952        2.93553
H          4.08067        0.48575       -0.30722
C          3.63608       -1.59963        0.15822
H          2.91842       -2.37397       -0.14867
H          3.55504       -1.51107        1.25222
H          3.35566       -0.42123       -1.63689
H          4.65246       -1.94887       -0.07926
H          0.49788        2.16597       -1.22905
C          2.50840        2.98175       -1.04452
H          3.56391        2.67433       -1.10954
H          2.34284        3.42632       -0.05219
H          1.65488        1.42860       -2.31659
H          2.35727        3.78061       -1.78711
