100
Cat172.ts34.5.log	Energy: -2577291.6009112
C          2.43434        1.84050       -0.04088
H          3.20813        1.47775       -0.72274
H          2.09802        2.86975       -0.19235
C          2.27422        1.24375        1.21005
H          2.94674        0.43769        1.52086
H          1.85773        1.83077        2.03398
H          0.84056        0.14079        1.32198
Co         0.81073        0.54716       -0.09881
O         -1.79165        0.22004        1.68121
O         -1.11686        2.59270        1.45154
O         -2.28362        1.53207       -0.44014
O          0.00248       -2.45674       -0.76602
O          2.26218       -1.93735       -1.60370
O          1.99144       -2.33222        0.81066
P          1.22418       -1.45723       -0.39638
P         -1.02951        1.15679        0.60657
C          0.63385        1.07085       -1.74526
O          0.49922        1.43921       -2.82601
C         -3.06762        0.53750        2.23643
H         -2.91430        0.79586        3.29704
H         -3.48321        1.42809        1.73871
C         -4.00159       -0.64292        2.07810
H         -3.96581       -0.97184        1.02756
H         -3.63154       -1.48907        2.68299
C         -5.43805       -0.30929        2.45163
H         -5.76156        0.56802        1.86339
H         -5.49170        0.00032        3.51069
C         -6.39449       -1.46337        2.19928
H         -6.38368       -1.75306        1.13605
H         -6.11361       -2.35304        2.78545
H         -7.42912       -1.20098        2.46761
C         -0.39555        3.67735        1.03431
C         -0.39916        4.07997       -0.30048
H         -1.02310        3.54224       -1.01743
C          0.36749        4.36373        1.98018
H          0.34922        4.02942        3.01911
C          0.39501        5.15285       -0.72212
C          0.40451        5.54448       -2.17109
H         -0.57087        5.95683       -2.47598
H          1.17105        6.30357       -2.37980
H          0.59960        4.67053       -2.81182
C          1.13967        5.44488        1.56879
H          1.74369        5.98589        2.30121
C          1.16563        5.83049        0.22774
H          1.79229        6.66920       -0.08571
C         -3.13546        0.61442       -0.98722
C         -4.46920        1.00189       -1.11872
H         -4.74770        2.00926       -0.79995
C         -2.72316       -0.66041       -1.37810
H         -1.68507       -0.97301       -1.26074
C         -5.42624        0.11784       -1.62399
C         -6.86945        0.52415       -1.70223
H         -6.97671        1.58457       -1.97348
H         -7.41818       -0.07727       -2.44080
H         -7.36769        0.38410       -0.72795
C         -3.67593       -1.53841       -1.88895
H         -3.36329       -2.53891       -2.19628
C         -5.01201       -1.16285       -2.01019
H         -5.74364       -1.86923       -2.41063
C          0.17190       -3.85461       -1.01227
H          1.22501       -4.06201       -1.25654
H         -0.08022       -4.39589       -0.08583
C         -0.73461       -4.26358       -2.15076
H         -0.63003       -5.35373       -2.29176
H         -1.78280       -4.09298       -1.84925
C         -0.44255       -3.53356       -3.45451
H          0.60600       -3.72043       -3.74457
H         -0.51199       -2.44818       -3.27543
C         -1.37694       -3.93088       -4.58480
H         -1.31390       -5.00960       -4.80198
H         -2.42636       -3.70647       -4.33363
H         -1.13965       -3.38999       -5.51313
C          3.36541       -1.16396       -1.86094
C          4.38894       -1.06136       -0.92069
H          4.30034       -1.62552        0.00996
C          3.43589       -0.47709       -3.07166
H          2.61570       -0.56807       -3.78530
C          5.49823       -0.24427       -1.16511
C          6.56755       -0.09429       -0.12247
H          6.83090       -1.06412        0.32567
H          7.48137        0.35000       -0.54102
H          6.22384        0.56025        0.69573
C          4.54492        0.32442       -3.32486
H          4.61048        0.87106       -4.26854
C          5.56404        0.44616       -2.38029
H          6.42428        1.08730       -2.58870
C          1.61326       -2.26274        2.12065
C          2.62464       -2.28898        3.08246
H          3.66139       -2.36036        2.74466
C          0.27368       -2.16860        2.50410
H         -0.51698       -2.12999        1.75406
C          2.31932       -2.22440        4.44383
C          3.40864       -2.29201        5.47494
H          4.35975       -1.90131        5.08535
H          3.14538       -1.71943        6.37613
H          3.58671       -3.33385        5.79006
C         -0.03075       -2.08581        3.86075
H         -1.07603       -1.99034        4.16441
C          0.97461       -2.11443        4.82274
H          0.71744       -2.04748        5.88302
