80
Cat104.ts34.5.log	Energy: -2334999.4036563
C         -0.64812        0.74104       -3.28813
H         -0.57615       -0.02741       -4.06167
H         -1.60089        1.28147       -3.29545
C          0.53221        1.41122       -2.87483
H          1.50400        1.08568       -3.25817
H          0.49063        2.49101       -2.68689
H          0.45263        1.39779       -1.25080
Co        -0.05597        0.02272       -1.49679
C         -2.58253        2.04592       -0.04840
O         -3.09673       -0.43972       -1.04011
O         -1.85146       -0.17693        1.22498
C          2.01376       -2.06001        0.33283
O          3.00663        0.11089       -1.10497
O          1.73634        0.44906        1.13755
P          1.61640       -0.38188       -0.31404
P         -1.79586        0.38505       -0.36274
C         -0.31838       -1.59538       -2.07553
O         -0.55174       -2.65513       -2.46178
H         -3.47703        2.02027       -0.69510
C         -3.04398        2.28334        1.38447
H         -3.54009        3.26512        1.44726
H         -3.75380        1.51701        1.72115
H         -2.19220        2.28612        2.07856
C         -1.67286        3.16127       -0.54906
H         -1.44312        3.05634       -1.61892
H         -2.16712        4.13549       -0.40980
H         -0.72207        3.18849        0.00093
C         -4.40668       -0.32691       -0.67176
C         -4.86443       -0.79234        0.56429
H         -4.16030       -1.23475        1.26915
C         -5.30356        0.22681       -1.58869
H         -4.92089        0.56680       -2.55330
C         -6.21847       -0.68803        0.87658
H         -6.57331       -1.05400        1.84313
C         -6.65491        0.32374       -1.26614
H         -7.35181        0.75644       -1.98802
C         -7.11751       -0.12921       -0.03102
H         -8.17729       -0.05228        0.22135
C         -1.39759       -1.40594        1.59078
C         -0.70355       -1.50882        2.79923
H         -0.53777       -0.60525        3.38655
C         -1.63621       -2.55159        0.82303
H         -2.19039       -2.47415       -0.11265
C         -0.23865       -2.74696        3.23147
H          0.30705       -2.81626        4.17542
C         -1.15457       -3.78457        1.26080
H         -1.33261       -4.67069        0.64717
C         -0.45400       -3.89078        2.46135
H         -0.08014       -4.86002        2.79793
H          1.00386       -2.42145        0.59039
C          2.55730       -2.93800       -0.79232
H          2.55455       -3.98916       -0.46522
H          1.95477       -2.87904       -1.70903
H          3.59402       -2.66802       -1.04174
C          2.87757       -2.13761        1.58545
H          2.50292       -1.47777        2.37773
H          2.85704       -3.17157        1.96478
H          3.92448       -1.87484        1.37769
C          4.31803        0.01585       -0.73025
C          5.20829       -0.51843       -1.66529
H          4.81277       -0.86565       -2.62174
C          4.79058        0.48799        0.49714
H          4.09552        0.90685        1.22351
C          6.56555       -0.59636       -1.36695
H          7.25477       -1.01795       -2.10262
C          6.15180        0.40137        0.78468
H          6.51577        0.76819        1.74746
C          7.04413       -0.14057       -0.13858
H          8.10889       -0.20340        0.09570
C          1.48930        1.77908        1.28683
C          2.02188        2.73776        0.41733
H          2.62225        2.42117       -0.43648
C          0.72673        2.17916        2.38582
H          0.31941        1.41282        3.04518
C          1.78659        4.09015        0.66032
H          2.20525        4.83416       -0.02149
C          0.50369        3.53315        2.62034
H         -0.09404        3.83762        3.48274
C          1.03137        4.49563        1.75939
H          0.85254        5.55688        1.94369
