80
Cat149.ts34.5.log	Energy: -2006194.6412572
C          1.26588       -3.53221        0.29642
H          1.82842       -3.80489        1.19390
H          0.39430       -4.17131        0.12216
C          1.98338       -3.04224       -0.83331
H          3.06446       -2.88256       -0.76129
H          1.69086       -3.40123       -1.82802
H          1.07151       -1.75361       -1.31720
Co         1.01249       -1.54436        0.14845
O         -1.28354       -0.31627       -1.54518
C         -1.96738       -2.88362       -0.84150
C         -2.17670       -0.59425        1.11260
O          0.70414        1.56360        0.32173
C          3.39812        0.85772        0.32895
C          1.65369        0.85757       -2.14373
P          1.71041        0.40909       -0.33959
P         -1.10223       -1.33976       -0.23246
C          1.42515       -1.34420        1.81503
O          1.69198       -1.19535        2.93281
C         -2.33277        0.51685       -1.97947
H         -2.19884        0.62261       -3.07073
H         -3.31971        0.04617       -1.83765
C         -2.29616        1.89183       -1.34014
H         -2.47090        1.80121       -0.25638
H         -1.27503        2.29127       -1.44174
C         -3.30952        2.85527       -1.93760
H         -4.32516        2.43120       -1.83907
H         -3.13076        2.95141       -3.02343
C         -3.26677        4.22955       -1.28863
H         -3.47856        4.16637       -0.20902
H         -2.27161        4.68954       -1.39961
H         -4.00334        4.91569       -1.73317
H         -1.14575       -3.35924       -1.40742
C         -2.32960       -3.81828        0.30832
H         -2.53282       -4.83159       -0.07392
H         -1.52019       -3.89466        1.04881
H         -3.23583       -3.48049        0.83304
C         -3.12517       -2.69527       -1.81281
H         -2.82696       -2.09290       -2.68176
H         -3.45914       -3.67653       -2.18932
H         -3.99498       -2.21598       -1.33974
H         -1.74809        0.42339        1.14045
C         -3.68543       -0.49525        0.89911
H         -4.13862        0.05246        1.74226
H         -3.97226        0.03190       -0.01852
H         -4.15538       -1.48956        0.87640
C         -1.89997       -1.23005        2.47490
H         -0.82966       -1.32570        2.68847
H         -2.34547       -0.60527        3.26535
H         -2.35090       -2.22896        2.55827
C          0.99741        2.78381        0.96215
H          1.93297        2.71253        1.54393
H          1.13339        3.58805        0.21529
C         -0.14893        3.11608        1.89495
H         -0.00920        4.14387        2.27333
H         -1.08088        3.12753        1.30336
C         -0.27588        2.13718        3.05379
H          0.60317        2.24107        3.71379
H         -0.22509        1.11160        2.65670
C         -1.55183        2.31777        3.85756
H         -1.62957        3.33520        4.27436
H         -2.44252        2.15366        3.22835
H         -1.60407        1.60883        4.69751
H          3.17422        0.97743        1.40607
C          4.35328       -0.32815        0.20886
H          5.28691       -0.11514        0.75353
H          3.90584       -1.24143        0.62234
H          4.62021       -0.52873       -0.83997
C          4.05979        2.13349       -0.18300
H          3.41154        3.01749       -0.12828
H          4.96250        2.34794        0.41230
H          4.38455        2.02084       -1.22798
H          0.67184        0.42149       -2.39362
C          1.59880        2.34251       -2.47717
H          1.34759        2.47200       -3.54285
H          0.82335        2.85708       -1.89277
H          2.55550        2.85443       -2.30481
C          2.71774        0.11588       -2.94497
H          2.74762       -0.95422       -2.69194
H          2.50390        0.19717       -4.02277
H          3.72349        0.53276       -2.78116
