78
Cat129.ts34.5.log	Energy: -2240617.2881889
C          0.51539       -2.10144        2.80838
H          0.37646       -3.18092        2.70269
H          1.45433       -1.80360        3.28561
C         -0.63259       -1.28376        2.99620
H         -1.62985       -1.73350        2.93416
H         -0.58010       -0.47205        3.73120
H         -0.36414       -0.02777        1.98701
Co         0.11027       -1.11953        1.10036
O          2.64051        0.31683        2.35933
C          3.29367       -0.72483       -0.06442
C          1.77496        1.68590        0.18850
O         -0.81711       -0.41621       -1.80660
C         -2.82565       -1.51910       -0.36266
C         -2.15386        1.22237       -0.03805
P         -1.36815       -0.42157       -0.23388
P          1.90570        0.00169        0.89219
C          0.30844       -2.59562        0.20747
O          0.46383       -3.57409       -0.38299
C          3.99567        0.68188        2.46003
H          4.66157       -0.15680        2.19672
H          4.25031        1.53749        1.81002
H          4.18119        0.96711        3.50623
C          3.56537       -2.08524        0.13359
H          2.92759       -2.66755        0.80314
C          4.12395       -0.00017       -0.92552
H          3.94336        1.06502       -1.08766
C          4.63416       -2.69841       -0.50938
H          4.82795       -3.76071       -0.33582
C          5.18436       -0.62333       -1.57969
H          5.81800       -0.03854       -2.25274
C          5.45874       -1.98117       -1.38613
C          6.58187       -2.65958       -2.11361
H          7.32826       -1.93583       -2.47083
H          7.09234       -3.39316       -1.47197
H          6.20441       -3.20653       -2.99381
C          1.86763        2.82073        0.99929
H          2.15516        2.71030        2.04728
C          1.36472        1.84641       -1.14258
H          1.24903        0.96729       -1.78123
C          1.55525        4.08178        0.49294
H          1.62873        4.95608        1.14655
C          1.05460        3.10662       -1.63910
H          0.72506        3.20775       -2.67736
C          1.13075        4.24744       -0.82844
C          0.71309        5.59019       -1.35016
H          1.02383        5.73454       -2.39565
H         -0.38566        5.68938       -1.32133
H          1.13544        6.40871       -0.74982
C         -1.56152        0.06821       -2.89537
H         -2.55926       -0.40037       -2.95854
H         -1.68782        1.16294       -2.84343
H         -1.00188       -0.18164       -3.80853
C         -2.80358       -2.60649       -1.24511
H         -1.95575       -2.73334       -1.92276
C         -3.90643       -1.39482        0.51813
H         -3.94415       -0.55640        1.21909
C         -3.84503       -3.52846       -1.25662
H         -3.81163       -4.36527       -1.96024
C         -4.94105       -2.32605        0.50524
H         -5.77872       -2.20727        1.19851
C         -4.93143       -3.40939       -0.38105
C         -6.03165       -4.42981       -0.37245
H         -5.75843       -5.29667        0.25256
H         -6.96522       -4.01470        0.03382
H         -6.23637       -4.81137       -1.38365
C         -1.51658        2.19521        0.73674
H         -0.59832        1.93652        1.26503
C         -3.33835        1.57537       -0.70134
H         -3.87692        0.83064       -1.29178
C         -2.02780        3.48534        0.82875
H         -1.49691        4.22726        1.43140
C         -3.84712        2.86677       -0.60718
H         -4.76948        3.12069       -1.13724
C         -3.19868        3.84752        0.15451
C         -3.75916        5.23427        0.27181
H         -4.38486        5.49302       -0.59438
H         -4.38942        5.32779        1.17207
H         -2.95945        5.98482        0.35708
