90
Cat124.ts34.5.log	Energy: -2151095.2203498
C         -0.82508       -2.37531       -1.97547
H         -0.61888       -3.39366       -1.63378
H         -1.83829       -2.23559       -2.36817
C          0.23286       -1.61376       -2.52895
H          1.23817       -2.04391       -2.57828
H          0.00817       -0.95107       -3.37231
H          0.17603       -0.12847       -1.72457
Co        -0.19587       -1.01937       -0.60998
O         -2.03441        0.94564       -2.16669
C         -3.62580       -0.63766       -0.56937
C         -2.16539        1.66718        0.47926
O          1.14854        0.64669        1.71757
C          2.86211       -1.31923        0.77276
C          2.29708        1.26092       -0.68937
P          1.51494       -0.12454        0.27510
P         -1.95414        0.21782       -0.65692
C         -0.33781       -2.14843        0.69556
O         -0.41352       -2.87652        1.59159
C         -3.10448        1.71341       -2.63987
H         -4.00436        1.10309       -2.83388
H         -3.38068        2.53151       -1.95025
H         -2.79161        2.16525       -3.59337
H         -3.77010       -0.94657       -1.62382
C         -4.83321        0.21099       -0.15672
H         -4.90696        1.12773       -0.75913
H         -4.70445        0.53981        0.88886
C         -6.13559       -0.57886       -0.26102
H         -6.98313        0.05333        0.05114
H         -6.31636       -0.84141       -1.31952
C         -6.08193       -1.85315        0.57164
H         -7.01567       -2.42806        0.45985
H         -6.00879       -1.58263        1.64083
C         -4.87838       -2.70347        0.18627
H         -5.01106       -3.06945       -0.84844
H         -4.81577       -3.59927        0.82517
C         -3.57332       -1.91902        0.26704
H         -3.35846       -1.66469        1.32017
H         -2.73618       -2.54389       -0.06938
H         -3.15806        2.11479        0.29478
C         -1.10451        2.73359        0.21042
H         -1.16024        3.07453       -0.83540
H         -0.11362        2.27473        0.34590
C         -1.23745        3.90761        1.17373
H         -0.44512        4.64858        0.97561
H         -2.19834        4.42478        0.99569
C         -1.17725        3.43956        2.62351
H         -1.30366        4.29220        3.31074
H         -0.17493        3.02020        2.81965
C         -2.22669        2.36936        2.90356
H         -3.23374        2.81706        2.81432
H         -2.13991        2.00871        3.94185
C         -2.10601        1.19648        1.93505
H         -1.14350        0.68173        2.08781
H         -2.89845        0.45840        2.13880
C          1.87692        0.70248        2.91197
H          2.20996       -0.29294        3.24992
H          2.75696        1.36487        2.84164
H          1.20348        1.10968        3.68170
H          2.40546       -1.78957        1.66708
C          4.24221       -0.78433        1.16488
H          4.17146        0.01544        1.91413
H          4.72103       -0.33514        0.27857
C          5.13581       -1.90525        1.69225
H          6.12675       -1.50157        1.95728
H          4.70076       -2.30099        2.62811
C          5.27238       -3.03785        0.68237
H          5.88543       -3.85354        1.09884
H          5.81374       -2.66494       -0.20632
C          3.90611       -3.55898        0.25330
H          3.41036       -4.04105        1.11519
H          4.01488       -4.33904       -0.51760
C          3.01090       -2.43927       -0.26403
H          3.44251       -2.02485       -1.19224
H          2.01488       -2.82237       -0.52865
H          1.39549        1.77396       -1.07063
C          3.06853        0.77211       -1.91706
H          2.45976        0.05459       -2.48771
H          3.97687        0.23302       -1.59794
C          3.47320        1.94524       -2.80513
H          4.05856        1.58282       -3.66580
H          2.56131        2.40979       -3.22148
C          4.26131        2.99201       -2.02569
H          4.51362        3.84588       -2.67519
H          5.22335        2.55384       -1.70213
C          3.49141        3.46614       -0.79804
H          2.57813        3.99636       -1.12381
H          4.08744        4.19660       -0.22695
C          3.09186        2.29918        0.10162
H          4.00109        1.84468        0.52743
H          2.48743        2.66369        0.94602
