92
Cat105.ts34.5.log	Energy: -2433606.9673798
C         -0.12702        2.88077       -0.06295
H         -1.02999        3.25694        0.42610
H          0.81733        3.33360        0.25259
C         -0.22017        2.32616       -1.34648
H         -1.18293        2.35778       -1.86357
H          0.65059        2.36794       -2.00881
H         -0.49281        0.60310       -1.30048
Co         0.01554        0.82940        0.07348
C          1.54388       -1.32589       -2.12817
O          2.94328        0.69991       -1.25663
O          2.42071       -1.14315        0.52219
C         -1.62559       -1.30491        2.13161
O         -3.07182        0.63306        1.13632
O         -2.33778       -1.18865       -0.57040
P         -1.70257       -0.21657        0.64028
P          1.66772       -0.22394       -0.65343
C          0.60915        1.11084        1.67434
O          0.97427        1.28958        2.75188
H          1.01567       -0.64516       -2.82252
C          2.84501       -1.76778       -2.78785
H          2.61787       -2.21765       -3.76796
H          3.52828       -0.92311       -2.94510
H          3.36840       -2.52631       -2.18929
C          0.61393       -2.49345       -1.81734
H         -0.33932       -2.14617       -1.39559
H          0.39548       -3.05431       -2.73957
H          1.08179       -3.19188       -1.10709
C          3.28556        1.89190       -0.68428
C          3.40962        3.00985       -1.51004
H          3.22615        2.89603       -2.58041
C          3.52076        2.01339        0.68563
H          3.42771        1.14049        1.33347
C          3.75150        4.24155       -0.96265
H          3.83787        5.11156       -1.61972
C          3.85062        3.25721        1.21996
H          4.01071        3.34179        2.29815
C          3.97207        4.39279        0.41304
C          4.35368        5.72426        0.99248
H          5.43298        5.91679        0.87125
H          4.13053        5.77346        2.06779
H          3.81952        6.54798        0.49582
C          3.51008       -1.96266        0.39366
C          4.77045       -1.46680        0.05575
H          4.89770       -0.40467       -0.15205
C          3.34935       -3.32065        0.66658
H          2.36148       -3.68917        0.94969
C          5.84820       -2.34222       -0.03666
H          6.82880       -1.94493       -0.31360
C          4.43957       -4.18121        0.57339
H          4.29868       -5.24514        0.78355
C          5.70857       -3.71246        0.21526
C          6.88852       -4.63773        0.13993
H          7.46621       -4.62197        1.07946
H          7.57637       -4.34900       -0.66854
H          6.57542       -5.67723       -0.03418
H         -1.19253       -0.59401        2.85995
C         -2.94190       -1.82019        2.70224
H         -2.76017       -2.24024        3.70483
H         -3.68556       -1.01789        2.79464
H         -3.37274       -2.61866        2.08238
C         -0.60714       -2.41779        1.90484
H          0.35187       -2.02450        1.53825
H         -0.41895       -2.95079        2.84986
H         -0.98265       -3.15389        1.17779
C         -3.46432        1.78031        0.51470
C         -3.75961        2.89261        1.30618
H         -3.64208        2.81017        2.38831
C         -3.60621        1.86009       -0.87119
H         -3.38275        0.98745       -1.48813
C         -4.18099        4.07491        0.71020
H         -4.40357        4.93997        1.34148
C         -4.02333        3.05727       -1.45274
H         -4.12472        3.11091       -2.54036
C         -4.31605        4.18482       -0.68138
C         -4.76619        5.47171       -1.31019
H         -4.77451        5.40160       -2.40693
H         -4.10402        6.30680       -1.03163
H         -5.78318        5.74338       -0.98421
C         -3.39663       -2.05314       -0.49028
C         -4.69878       -1.60721       -0.25433
H         -4.88825       -0.54732       -0.08770
C         -3.16056       -3.41010       -0.71041
H         -2.14134       -3.74429       -0.91250
C         -5.74128       -2.52755       -0.20822
H         -6.75470       -2.16725       -0.00983
C         -4.21630       -4.31649       -0.66503
H         -4.01477       -5.37835       -0.83185
C         -5.52587       -3.89668       -0.40759
C         -6.66732       -4.87159       -0.38054
H         -7.39946       -4.61336        0.39903
H         -6.31744       -5.89675       -0.19255
H         -7.20664       -4.87938       -1.34266
