62
Cat140.ts34.5.log	Energy: -1858303.6099983
C         -0.71743       -2.75481       -1.15675
H         -0.86973       -3.61392       -0.49677
H         -1.57753       -2.54918       -1.80321
C          0.58973       -2.51489       -1.67024
H          1.42204       -3.13740       -1.32604
H          0.69634       -2.23029       -2.72337
H          0.71159       -0.85093       -1.51387
Co         0.09426       -1.18070       -0.21050
O         -1.24562        1.30645       -1.74557
C         -3.19479       -0.44522       -0.90016
C         -1.85007        1.31263        0.92978
O          1.41645        1.14388        1.68529
C          3.28923       -0.53295        0.70520
C          1.97524        1.52628       -0.84101
P          1.62766        0.17296        0.33749
P         -1.51423        0.20680       -0.50685
C         -0.00026       -2.02738        1.30536
O         -0.08929       -2.62188        2.29367
C         -2.22488        1.90724       -2.54868
H         -2.73547        1.17357       -3.19659
H         -2.99182        2.44905       -1.96966
H         -1.71435        2.63389       -3.19853
H         -3.90310        0.37866       -1.08585
H         -3.10158       -1.00183       -1.84835
C         -3.72672       -1.36610        0.19206
H         -3.90101       -0.78126        1.11147
H         -2.94917       -2.10443        0.44804
C         -5.01001       -2.07689       -0.20782
H         -5.81070       -1.35933       -0.44953
H         -4.85268       -2.70829       -1.09693
H         -5.37733       -2.72702        0.60072
H         -2.06455        0.61934        1.76324
H         -0.87046        1.75815        1.17056
C         -2.91791        2.39288        0.84114
H         -3.88598        1.95308        0.54527
H         -2.64563        3.10578        0.04603
C         -3.08734        3.14503        2.15337
H         -3.39396        2.46505        2.96436
H         -2.14208        3.61905        2.46230
H         -3.84902        3.93588        2.07410
C          1.07801        0.57917        2.92531
H          0.09920        0.07339        2.89530
H          1.83081       -0.15030        3.27234
H          1.02929        1.39849        3.65700
H          3.91129        0.25877        1.15633
H          3.12965       -1.30394        1.47777
C          3.97636       -1.15197       -0.50496
H          4.18065       -0.36788       -1.25411
H          3.28222       -1.85863       -0.98751
C          5.27296       -1.86205       -0.14833
H          5.99275       -1.17113        0.31906
H          5.09302       -2.68248        0.56454
H          5.75408       -2.29343       -1.03938
H          2.28389        1.02970       -1.77731
H          0.99111        1.96945       -1.06886
C          2.98179        2.58190       -0.40969
H          3.96991        2.11649       -0.25145
H          2.67586        2.98542        0.56814
C          3.10984        3.70665       -1.42579
H          3.43933        3.32719       -2.40656
H          2.14396        4.21413       -1.57882
H          3.83802        4.46506       -1.09965
