100
Cat155.ts34.5.log	Energy: -2577187.6517150
C         -0.23890       -3.52862       -0.54315
H          0.18085       -4.23636        0.17711
H         -1.29976       -3.68688       -0.76374
C          0.60701       -2.98479       -1.53540
H          1.67320       -3.23299       -1.55308
H          0.19445       -2.82124       -2.53711
H          0.34927       -1.28858       -1.48220
Co         0.22928       -1.62032       -0.04403
O         -1.82190        0.36422       -1.44357
C         -3.12295       -1.75588       -0.40414
C         -2.23953        0.34640        1.27712
O          2.04162        0.63706        1.45413
C          3.37095       -0.57480       -0.56591
C          1.39700        1.43846       -0.94166
P          1.69255       -0.09970       -0.00912
P         -1.67968       -0.66449       -0.14370
C          0.35813       -2.13530        1.60631
O          0.36579       -2.47004        2.71234
C         -2.81702        1.36047       -1.58069
H         -3.04362        1.42266       -2.65990
H         -3.75474        1.06290       -1.07712
C         -2.32802        2.70517       -1.08227
H         -2.18223        2.66269        0.00876
H         -1.33234        2.87648       -1.51690
C         -3.24974        3.86118       -1.43608
H         -4.23378        3.71582       -0.95518
H         -3.44458        3.85685       -2.52451
C         -2.66969        5.20790       -1.03125
H         -2.47968        5.24537        0.05338
H         -1.70797        5.38971       -1.53772
H         -3.34715        6.03863       -1.28190
C         -3.57364       -2.58965        0.63356
H         -3.12412       -2.50875        1.62765
C         -3.69215       -1.90898       -1.66784
H         -3.33216       -1.28937       -2.49265
C         -4.57904       -3.51666        0.41736
H         -4.93884       -4.16446        1.21906
C         -4.70626       -2.84093       -1.90145
H         -5.13047       -2.92745       -2.90219
C         -5.15869       -3.64910       -0.85461
O         -6.13085       -4.57641       -0.97106
C         -6.73393       -4.76607       -2.21891
H         -6.00451       -5.08603       -2.98426
H         -7.48277       -5.55805       -2.09067
H         -7.24059       -3.85127       -2.57505
C         -1.26457        0.98838        2.05870
H         -0.20518        0.81441        1.85610
C         -3.58454        0.57942        1.57996
H         -4.36584        0.07377        1.00711
C         -1.62302        1.85366        3.07911
H         -0.86887        2.35897        3.68534
C         -3.96072        1.44425        2.60654
H         -5.02020        1.59919        2.81196
C         -2.97571        2.09522        3.35968
O         -3.23281        2.95154        4.36581
C         -4.56477        3.23452        4.69060
H         -5.11043        2.33029        5.01326
H         -4.54088        3.94950        5.52273
H         -5.10590        3.69138        3.84313
C          2.73404       -0.07791        2.46144
H          2.16920        0.04580        3.40097
H          2.73864       -1.15996        2.24289
C          4.15561        0.42442        2.61327
H          4.66563        0.33879        1.63975
H          4.13091        1.50043        2.85839
C          4.93764       -0.34025        3.67073
H          4.93021       -1.41501        3.41593
H          4.42204       -0.26008        4.64432
C          6.37404        0.13776        3.80905
H          6.91890        0.03198        2.85710
H          6.41550        1.20141        4.09370
H          6.92176       -0.43328        4.57410
C          4.28376        0.33191       -1.12830
H          3.96829        1.35668       -1.33957
C          3.79986       -1.87773       -0.30801
H          3.08492       -2.58555        0.12240
C          5.58301       -0.05595       -1.41091
H          6.30293        0.63726       -1.85036
C          5.10827       -2.27983       -0.57373
H          5.40983       -3.30365       -0.35152
C          6.00981       -1.36392       -1.12869
O          7.29082       -1.64654       -1.42820
C          7.78176       -2.93003       -1.15807
H          7.23827       -3.70564       -1.72580
H          8.83432       -2.93590       -1.46807
H          7.72490       -3.17260       -0.08224
C          1.53463        2.70445       -0.35485
H          1.81929        2.77273        0.69576
C          1.03213        1.36513       -2.28697
H          0.89673        0.38959       -2.76016
C          1.30261        3.85739       -1.09088
H          1.38776        4.84686       -0.63779
C          0.81603        2.51474       -3.04312
H          0.52586        2.41694       -4.08919
C          0.93744        3.77283       -2.44004
O          0.69551        4.94310       -3.06689
C          0.27191        4.91784       -4.40097
H         -0.68147        4.37232       -4.51725
H          0.12256        5.96196       -4.70373
H          1.02655        4.45899       -5.06374
