110
Cat190.ts34.5.log	Energy: -2815137.5616760
C          0.28599       -3.01245        0.45894
H         -0.30736       -3.66020       -0.18824
H          1.34756       -3.27036        0.52579
C         -0.34261       -2.34131        1.51802
H         -1.41890       -2.46364        1.67915
H          0.23477       -2.14442        2.42685
H         -0.27563       -0.57339        1.32521
Co        -0.00445       -1.04537       -0.04743
O          2.12899        0.64060        1.76707
C          3.20765       -1.34739        0.38136
C          2.67962        1.21457       -0.77055
O         -2.08075        0.52729       -1.93810
C         -3.44523       -1.02260       -0.19390
C         -2.06835        1.40099        0.72256
P         -1.85496       -0.05427       -0.40532
P          1.87816       -0.07554        0.29807
C          0.21633       -1.55501       -1.68441
O          0.32931       -1.93069       -2.77106
C          1.17887        1.51533        2.34000
H          0.24232        1.46739        1.75872
C          1.72071        2.93323        2.29618
H          1.90788        3.23871        1.25610
H          2.67342        2.99465        2.84565
H          1.00398        3.63822        2.74300
C          0.89987        1.03037        3.74973
H          0.46687        0.01960        3.71850
H          1.83851        0.98269        4.32396
H          0.19684        1.70178        4.26474
C          3.74114       -1.80411       -0.83754
O          3.24329       -1.20654       -1.93693
C          3.60117       -1.65094       -3.21081
H          3.01193       -1.05591       -3.91954
H          4.67565       -1.49598       -3.41263
H          3.35353       -2.71680       -3.35371
C          3.57281       -2.03515        1.55333
O          2.92524       -1.70848        2.69018
C          3.25493       -2.35235        3.88217
H          2.61404       -1.91368        4.65848
H          4.31107       -2.19033        4.16299
H          3.06469       -3.43992        3.83484
C          4.54198       -3.04983        1.51350
H          4.84413       -3.56346        2.42520
C          4.69978       -2.82157       -0.88980
H          5.11941       -3.14595       -1.84138
C          5.10268       -3.42249        0.29740
H          5.85426       -4.21526        0.27294
C          3.89954        1.80335       -0.37464
O          4.49691        1.27597        0.70540
C          5.67937        1.82866        1.19488
H          5.95154        1.23957        2.08009
H          6.50211        1.76791        0.46010
H          5.54840        2.88387        1.49475
C          2.09510        1.66429       -1.97115
O          0.99727        1.02367       -2.38476
C          0.44226        1.29422       -3.63659
H         -0.40135        0.60439       -3.74265
H          1.17423        1.12897       -4.44729
H          0.05935        2.32709       -3.70547
C          2.66001        2.72238       -2.70140
H          2.19511        3.06835       -3.62375
C          4.46221        2.86845       -1.09360
H          5.39452        3.32934       -0.76999
C          3.82837        3.31894       -2.24523
H          4.26609        4.14569       -2.81061
C         -3.34883        0.88997       -2.48203
H         -4.08926        0.95116       -1.66738
C         -3.77109       -0.18210       -3.47027
H         -3.81164       -1.16429       -2.98229
H         -3.04314       -0.24340       -4.29464
H         -4.76116        0.04244       -3.89603
C         -3.24118        2.25676       -3.13091
H         -2.94118        3.01099       -2.39390
H         -2.49214        2.24444       -3.93747
H         -4.20960        2.54597       -3.56708
C         -4.63227       -0.56438        0.41312
O         -4.73003        0.76291        0.62162
C         -5.76424        1.28270        1.40332
H         -5.54637        2.35076        1.53196
H         -6.74848        1.17017        0.91516
H         -5.80431        0.80535        2.39791
C         -3.43617       -2.36626       -0.62793
O         -2.39677       -2.73040       -1.39620
C         -2.31478       -4.02631       -1.91611
H         -1.39429       -4.05370       -2.51238
H         -3.17603       -4.25756       -2.56723
H         -2.25292       -4.78698       -1.11841
C         -4.47813       -3.25048       -0.31584
H         -4.43782       -4.29156       -0.63295
C         -5.67878       -1.43727        0.73708
H         -6.57763       -1.06957        1.23065
C         -5.57888       -2.77843        0.38686
H         -6.39317       -3.46305        0.63644
C         -2.40803        1.17565        2.07150
O         -2.65217       -0.10988        2.39976
C         -2.92285       -0.45766        3.72526
H         -3.04976       -1.54759        3.73909
H         -2.09149       -0.18186        4.39667
H         -3.85138        0.01279        4.09457
C         -1.64429        2.69738        0.37812
O         -1.14445        2.87779       -0.86021
C         -0.49486        4.07775       -1.16663
H         -0.07340        3.95673       -2.17155
H          0.33162        4.28281       -0.46531
H         -1.18833        4.93768       -1.17282
C         -1.70757        3.74921        1.30724
H         -1.40402        4.75499        1.02150
C         -2.47019        2.21224        3.00577
H         -2.75850        2.01807        4.03807
C         -2.13346        3.50138        2.60412
H         -2.17841        4.32199        3.32403
