108
Cat153.ts34.5.log	Energy: -2299000.8020536
C         -1.25209       -0.19249       -3.28512
H         -1.17833       -1.04287       -3.96922
H         -2.28338        0.11579       -3.08238
C         -0.24703        0.80927       -3.32486
H          0.61364        0.68703       -3.98896
H         -0.54996        1.85750       -3.22341
H          0.03148        1.08054       -1.64489
Co        -0.03707       -0.38914       -1.68259
O         -2.16656        1.28359       -0.14400
C         -3.26060       -1.20786       -0.76316
C         -1.34302       -0.75929        1.49558
O          1.93124       -0.97999        0.87629
C          3.26188        0.20223       -1.14359
C          1.26996        1.57149        0.66966
P          1.57575        0.06980       -0.37808
P         -1.68920       -0.32018       -0.28178
C          0.50614       -1.94934       -2.23093
O          0.84524       -2.97799       -2.64002
C         -3.44644        1.82512        0.06860
H         -4.16334        1.44218       -0.68161
H         -3.84174        1.55129        1.06415
C         -3.34788        3.33159       -0.04516
H         -2.61927        3.69142        0.70189
H         -2.92009        3.57708       -1.03218
C         -4.68292        4.03563        0.14478
H         -5.10408        3.76293        1.12890
H         -5.40413        3.66000       -0.60280
C         -4.57988        5.54856        0.03714
H         -3.89314        5.95608        0.79627
H         -4.19498        5.85220       -0.94947
H         -5.55757        6.03367        0.17738
H         -3.63934       -0.56343       -1.58032
C         -4.38516       -1.35429        0.26674
H         -4.64085       -0.39069        0.72710
H         -4.04631       -2.00806        1.08712
C         -5.63222       -1.96794       -0.36649
H         -6.42393       -2.07516        0.39313
H         -6.02731       -1.27338       -1.13044
C         -5.32933       -3.31200       -1.01684
H         -6.23229       -3.71864       -1.50069
H         -5.04454       -4.03612       -0.23178
C         -4.18999       -3.19098       -2.02149
H         -4.51701       -2.56157       -2.86926
H         -3.94250       -4.17731       -2.44626
C         -2.94651       -2.56910       -1.39622
H         -2.54665       -3.24919       -0.62456
H         -2.15079       -2.45406       -2.14407
H         -0.31652       -0.37431        1.61290
C         -1.22457       -2.26853        1.70901
H         -0.61115       -2.71276        0.90876
H         -2.21817       -2.74254        1.64004
C         -0.62743       -2.56691        3.08067
H         -0.56704       -3.65579        3.24215
H          0.40841       -2.18404        3.10900
C         -1.43590       -1.90648        4.19266
H         -0.97378       -2.10491        5.17337
H         -2.44312       -2.36090        4.22701
C         -1.57350       -0.40488        3.96488
H         -0.57546        0.06504        4.03442
H         -2.18772        0.05058        4.75892
C         -2.17014       -0.09332        2.59382
H         -3.21450       -0.44407        2.56373
H         -2.19028        0.99572        2.43392
C          2.23989       -2.34273        0.65075
H          1.55427       -2.94295        1.27181
H          2.04904       -2.62643       -0.39636
C          3.67359       -2.65646        1.03425
H          3.83821       -3.73638        0.87199
H          4.36315       -2.13865        0.34544
C          4.01299       -2.28668        2.47096
H          3.35839       -2.85647        3.15460
H          3.75841       -1.22575        2.63081
C          5.47093       -2.53031        2.82276
H          5.74671       -3.58895        2.68949
H          6.13868       -1.93494        2.17869
H          5.68880       -2.25878        3.86681
H          3.45611       -0.86572       -1.37038
C          4.38192        0.69283       -0.22756
H          4.36023        0.15317        0.73068
H          4.22012        1.75825        0.00831
C          5.74183        0.54119       -0.90286
H          6.53772        0.92005       -0.24087
H          5.95148       -0.53341       -1.05697
C          5.77640        1.26016       -2.24711
H          6.75234        1.11377       -2.73780
H          5.67568        2.34753       -2.07528
C          4.64648        0.79124       -3.15761
H          4.81013       -0.26934       -3.42171
H          4.65874        1.35167       -4.10654
C          3.28230        0.92676       -2.48813
H          3.04770        1.99540       -2.34294
H          2.48918        0.51584       -3.12753
H          0.18119        1.49869        0.83992
C          1.46872        2.88101       -0.09692
H          0.96460        2.83139       -1.07541
H          2.54167        3.04189       -0.29836
C          0.92580        4.05588        0.71078
H          1.09628        4.99955        0.16745
H         -0.16878        3.94165        0.80468
C          1.55172        4.11920        2.09975
H          1.11495        4.94807        2.68046
H          2.62929        4.34506        2.00033
C          1.38833        2.79974        2.84641
H          0.31509        2.62506        3.04690
H          1.88313        2.85024        3.83012
C          1.93804        1.62408        2.04348
H          3.02911        1.73322        1.93399
H          1.77364        0.67744        2.57758
