90
Cat144.ts34.5.log	Energy: -2339222.1023793
C          1.07394       -0.63584       -2.87222
H          1.56044       -1.49822       -3.33673
H          0.15068       -0.31614       -3.36667
C          1.86513        0.33405       -2.21646
H          2.94543        0.19507       -2.12351
H          1.57519        1.38747       -2.28830
H          1.05744        0.57308       -0.72897
Co         0.91236       -0.88692       -0.87004
O         -1.46102        0.99993       -1.59566
C         -2.32461       -1.64711       -1.36095
C         -1.79590        0.08454        0.99671
O          0.80976       -1.46397        2.19327
C          3.30914       -2.04777        1.27598
C          2.47609        0.67159        1.78967
P          1.85478       -0.91480        1.00496
P         -1.13443       -0.35937       -0.69051
C          0.91946       -2.60771       -1.05024
O          0.85709       -3.75776       -1.15552
C         -2.71026        1.35253       -2.13476
H         -2.93770        0.75394       -3.03489
H         -3.53322        1.24533       -1.41212
H         -2.65279        2.40935       -2.43383
H         -2.39141       -1.43811       -2.44023
H         -1.74742       -2.57894       -1.27500
C         -3.67735       -1.84860       -0.75188
C         -3.81284       -2.67132        0.37680
H         -2.93009       -3.16801        0.78927
C         -4.82827       -1.25878       -1.28039
H         -4.74426       -0.63371       -2.17281
C         -5.05975       -2.87175        0.95981
H         -5.15284       -3.51869        1.83555
C         -6.09046       -1.44388       -0.70586
C         -7.29253       -0.76406       -1.29396
H         -7.19779        0.33137       -1.21983
H         -7.40799       -1.00803       -2.36155
H         -8.21701       -1.05724       -0.77722
C         -6.19306       -2.25830        0.42605
H         -7.17090       -2.42156        0.88727
H         -2.09558       -0.86363        1.46752
H         -0.89937        0.41619        1.53861
C         -2.87301        1.12180        1.08552
C         -2.55714        2.47082        0.87887
H         -1.52772        2.75355        0.65417
C         -4.20165        0.78370        1.36535
H         -4.45936       -0.26420        1.53616
C         -3.55126        3.44316        0.92134
H         -3.29351        4.49083        0.74541
C         -5.21150        1.74999        1.42444
C         -6.62062        1.36495        1.77314
H         -6.79439        0.29347        1.60285
H         -6.83230        1.57092        2.83573
H         -7.35379        1.93439        1.18211
C         -4.87201        3.08675        1.18458
H         -5.64911        3.85580        1.21628
C          1.17410       -1.68037        3.53044
H          1.74124       -2.61883        3.65782
H          1.77287       -0.85209        3.95022
H          0.24832       -1.75980        4.11928
H          3.52322       -2.14088        2.35157
H          2.98589       -3.03340        0.90522
C          4.52193       -1.55382        0.54846
C          4.57784       -1.58026       -0.85145
H          3.74429       -2.00904       -1.41091
C          5.59543       -0.99726        1.25057
H          5.56559       -0.98625        2.34519
C          5.67629       -1.04517       -1.51595
H          5.71205       -1.06846       -2.60785
C          6.70879       -0.45356        0.59771
C          7.82378        0.17319        1.38400
H          7.55682        1.19601        1.69897
H          8.04569       -0.39959        2.29675
H          8.74651        0.24239        0.79079
C          6.73195       -0.48099       -0.79988
H          7.59053       -0.06342       -1.33284
H          1.70630        0.93642        2.53176
H          3.41037        0.46584        2.33273
C          2.65594        1.79613        0.81916
C          3.86622        1.99799        0.14672
H          4.72022        1.35156        0.35929
C          1.57011        2.61837        0.50718
H          0.62355        2.46356        1.03331
C          3.97086        3.00235       -0.81066
H          4.91961        3.15416       -1.33119
C          1.64795        3.61189       -0.47437
C          0.42734        4.40448       -0.84131
H         -0.31603        3.74977       -1.32562
H         -0.05342        4.84212        0.04758
H          0.66654        5.22142       -1.53621
C          2.87080        3.79934       -1.12594
H          2.95845        4.57170       -1.89492
