80
Cat106.ts34.5.log	Energy: -2583976.0783110
C         -1.12437        1.48759       -2.29528
H         -0.25186        1.79201       -2.88454
H         -1.92406        1.03300       -2.88553
C         -1.47423        2.24732       -1.15004
H         -0.92297        3.17245       -0.94547
H         -2.52251        2.28843       -0.83916
H         -0.45661        1.71027        0.00587
Co        -0.73670        0.39837       -0.63594
C         -0.66809        0.91410        2.78468
O         -2.97301        0.74224        1.58148
O         -1.64654       -1.39858        1.99815
C          1.88627       -0.74224       -2.51657
O          2.16451        1.59129       -1.36210
O          2.25241       -0.47423        0.23037
P          1.32340        0.17272       -1.01165
P         -1.44470        0.11795        1.32405
C         -1.48367       -0.98139       -1.39054
O         -1.94869       -1.87973       -1.94026
H         -0.47973        1.94667        2.43820
C         -1.56105        0.94184        4.01824
H         -1.02164        1.41444        4.85433
H         -2.48873        1.49972        3.83962
H         -1.82990       -0.08060        4.32345
C          0.66528        0.22839        3.06621
H          1.27473        0.10832        2.15951
H          1.24358        0.80959        3.80106
H          0.49710       -0.77392        3.48890
C         -4.00191        0.65984        0.69258
C         -4.77599        1.80566        0.49338
H         -4.52079        2.71329        1.04354
C         -4.31262       -0.51627        0.00764
H         -3.72575       -1.41933        0.17231
C         -5.85035        1.78223       -0.39033
H         -6.46825        2.66596       -0.55873
C         -5.37853       -0.54045       -0.88889
H         -5.62737       -1.44772       -1.44182
C         -6.13463        0.60831       -1.07919
F         -7.15667        0.58567       -1.93519
C         -1.39528       -2.58674        1.37909
C         -2.43394       -3.51410        1.27718
H         -3.41410       -3.25645        1.68274
C         -0.12283       -2.89973        0.89748
H          0.68295       -2.16940        0.98535
C         -2.21084       -4.74983        0.67742
H         -3.00721       -5.49002        0.58357
C          0.10177       -4.13557        0.29668
H          1.08359       -4.40773       -0.09465
C         -0.94392       -5.04332        0.18784
F         -0.72454       -6.22362       -0.39127
H          1.15324       -0.36170       -3.25211
C          3.28857       -0.44792       -3.03707
H          3.40438       -0.89957       -4.03535
H          3.47589        0.63006       -3.12197
H          4.06269       -0.88074       -2.38784
C          1.64396       -2.23811       -2.34234
H          0.63133       -2.46663       -1.98463
H          1.77865       -2.75101       -3.30694
H          2.36701       -2.67205       -1.63582
C          1.92434        2.76991       -0.72374
C          1.88199        2.85956        0.67056
H          2.04207        1.96699        1.27610
C          1.74063        3.91466       -1.50228
H          1.78087        3.82395       -2.58917
C          1.63393        4.08658        1.28229
H          1.59224        4.17887        2.36914
C          1.50283        5.14369       -0.89456
H          1.35485        6.05055       -1.48350
C          1.44410        5.21403        0.49330
F          1.20737        6.38785        1.07702
C          3.59477       -0.73966        0.26946
C          4.55256        0.26559        0.11515
H          4.23842        1.28775       -0.09217
C          3.99416       -2.04829        0.54782
H          3.23207       -2.81582        0.69444
C          5.90591       -0.04813        0.20622
H          6.67270        0.71852        0.08196
C          5.34614       -2.36399        0.64472
H          5.67930       -3.38061        0.86042
C          6.28866       -1.35858        0.46539
F          7.58420       -1.65559        0.55242
