84
Cat154.ts34.5.log	Energy: -2289913.5655833
C         -0.06953       -3.70864       -0.35270
H         -0.53134       -4.20366       -1.21155
H          0.97357       -3.99277       -0.17668
C         -0.88525       -3.35940        0.75286
H         -1.96703       -3.52879        0.70713
H         -0.47984       -3.49471        1.76231
H         -0.45276       -1.77995        1.10251
Co        -0.41341       -1.72029       -0.37665
O          1.45124        0.26989        1.25278
C          2.77337       -1.98831        0.56771
C          2.30985        0.11655       -1.32412
O         -1.65888        1.03300       -1.14644
C         -3.64704       -0.69610       -0.35016
C         -1.95333        0.55158        1.55377
P         -1.88488       -0.23480       -0.09758
P          1.46933       -0.83469        0.00636
C         -0.54053       -1.78733       -2.10724
O         -0.56679       -1.82214       -3.25950
C          2.55273        1.09777        1.57522
H          2.61166        1.13511        2.67677
H          3.49982        0.65041        1.22374
C          2.39871        2.49803        1.01216
H          2.21502        2.42765       -0.07157
H          1.50138        2.96524        1.45187
C          3.61630        3.37433        1.26201
H          4.50468        2.88776        0.82181
H          3.81367        3.43880        2.34721
C          3.46525        4.77161        0.68262
H          3.30361        4.72917       -0.40657
H          2.60139        5.29539        1.12265
H          4.35807        5.38863        0.86508
C          3.41264       -2.83670       -0.34742
C          3.00785       -2.16790        1.93614
C          4.53642       -3.97904        1.46162
C          3.88814       -3.15392        2.37908
C          4.29306       -3.81989        0.09669
H          3.21664       -2.72611       -1.41787
H          4.79023       -4.46972       -0.62774
H          5.22628       -4.75171        1.80922
H          4.06720       -3.27937        3.44992
H          2.48868       -1.52894        2.65477
C          3.70022        0.22925       -1.45432
C          1.48424        0.85734       -2.18130
C          3.42427        1.82648       -3.24667
C          2.03918        1.71098       -3.13174
C          4.25352        1.07956       -2.41034
H          4.35895       -0.34973       -0.80266
H          5.33962        1.16033       -2.50090
H          3.85954        2.49470       -3.99392
H          1.38353        2.28900       -3.78758
H          0.39859        0.78168       -2.07684
C         -2.58489        2.01840       -1.57219
H         -2.47361        2.08368       -2.66811
H         -3.61957        1.69649       -1.37385
C         -2.31046        3.37005       -0.94150
H         -3.04095        4.09007       -1.35120
H         -2.51190        3.31389        0.14148
C         -0.89250        3.87263       -1.17962
H         -0.74158        4.03195       -2.26219
H         -0.17933        3.07946       -0.90119
C         -0.56708        5.14481       -0.41587
H         -1.24559        5.96864       -0.69048
H         -0.66608        4.98882        0.67114
H          0.46305        5.47999       -0.60929
C         -3.91650       -1.84709       -1.09860
C         -4.72130        0.04847        0.16037
C         -6.28987       -1.48569       -0.85042
C         -6.03405       -0.34343       -0.09089
C         -5.22978       -2.23784       -1.35317
H         -3.07453       -2.43605       -1.47248
H         -5.42511       -3.13834       -1.94029
H         -7.32043       -1.79360       -1.04377
H         -6.86293        0.24420        0.31132
H         -4.52926        0.93380        0.77214
C         -1.19756        1.69620        1.81766
C         -2.62433       -0.07857        2.60952
C         -1.82378        1.60360        4.14813
C         -2.56141        0.44629        3.89837
C         -1.14032        2.22553        3.10453
H         -0.63467        2.16060        1.00876
H         -0.54908        3.12521        3.29438
H         -1.77763        2.01673        5.15866
H         -3.09371       -0.05113        4.71283
H         -3.20459       -0.98640        2.42321
