72
Cat111.ts34.5.log	Energy: -1862542.4301674
C         -0.09480       -1.05922       -2.77648
H          0.18340       -2.09409       -2.99575
H         -1.08462       -0.79438       -3.17010
C          0.92828       -0.06675       -2.76586
H          1.97145       -0.36578       -2.90672
H          0.71507        0.90433       -3.23018
H          0.56700        0.81795       -1.38274
Co         0.31377       -0.55156       -0.88229
C         -2.24876        1.47984       -1.66158
C         -3.03017       -1.12175       -0.59955
C         -2.05570        0.88489        1.21994
C          1.17620       -0.16932        2.45753
C          3.35862       -0.62257        0.62534
C          1.98290        1.93687        0.73246
P          1.65852        0.11708        0.66683
P         -1.69982        0.15424       -0.44779
C          0.50951       -2.22741       -0.50479
O          0.63724       -3.35821       -0.28635
H         -1.75756        1.14750       -2.59285
C         -3.73902        1.60320       -1.95719
H         -3.90580        2.38407       -2.71778
H         -4.16154        0.66923       -2.35359
H         -4.32261        1.88434       -1.06834
C         -1.63108        2.82198       -1.28346
H         -0.55450        2.72240       -1.07404
H         -1.74650        3.54623       -2.10557
H         -2.11377        3.25759       -0.39419
H         -4.02600       -0.65654       -0.51439
H         -2.94949       -1.51559       -1.62721
C         -2.90294       -2.26504        0.39921
H         -2.97155       -1.86880        1.42755
H         -1.90278       -2.71677        0.31327
C         -3.96532       -3.33568        0.20200
H         -4.98101       -2.92192        0.31100
H         -3.89629       -3.78042       -0.80356
H         -3.85576       -4.15059        0.93370
H         -1.72560        0.11242        1.93442
H         -1.33942        1.71459        1.34575
C         -3.46145        1.34322        1.58426
H         -4.18309        0.53339        1.38523
H         -3.76286        2.18188        0.93667
C         -3.56840        1.76843        3.04158
H         -3.31171        0.93713        3.71788
H         -2.87922        2.59851        3.26617
H         -4.58632        2.10245        3.29460
H          0.39541        0.59398        2.62046
C          0.54275       -1.54059        2.65098
H          0.20148       -1.66337        3.69156
H         -0.31655       -1.68323        1.98245
H          1.25638       -2.35256        2.43901
C          2.29286        0.06586        3.46930
H          2.78374        1.04308        3.35069
H          1.88730        0.02713        4.49325
H          3.06871       -0.71166        3.39999
H          4.05058        0.01361        1.20381
H          3.28200       -1.58021        1.17042
C          3.90415       -0.89382       -0.76972
H          3.96727        0.04854       -1.33869
H          3.17331       -1.51564       -1.31049
C          5.26429       -1.57231       -0.74569
H          6.01761       -0.95150       -0.23389
H          5.21723       -2.53691       -0.21494
H          5.63268       -1.77108       -1.76372
H          0.99039        2.39808        0.87967
H          2.57519        2.16835        1.63341
C          2.65129        2.53982       -0.49483
H          2.12352        2.20165       -1.40169
H          3.67977        2.15126       -0.58134
C          2.68323        4.05998       -0.45541
H          1.66337        4.47649       -0.42253
H          3.21826        4.42901        0.43439
H          3.18443        4.47613       -1.34252
