78
Cat130.ts34.5.log	Energy: -2240603.4973442
C          0.40727       -0.40544        3.51453
H         -0.09226       -1.20793        4.06405
H          1.48776       -0.35841        3.68057
C         -0.32342        0.77478        3.22192
H         -1.38375        0.83374        3.48848
H          0.17295        1.74754        3.31404
H          0.12643        1.06023        1.60356
Co        -0.07875       -0.38965        1.56069
O          3.03981       -0.76466        1.85371
C          2.31385       -1.66319       -0.64953
C          2.36296        1.17186       -0.05566
O         -0.54993       -0.32324       -1.54051
C         -2.80574       -1.02637       -0.20826
C         -1.88099        1.78322       -0.44968
P         -1.32712        0.05048       -0.11017
P          1.89845       -0.44953        0.68784
C         -0.72207       -1.99430        1.80130
O         -1.14313       -3.04869        1.99765
C          4.39794       -1.04806        1.66341
H          4.55133       -1.86308        0.93655
H          4.96534       -0.16223        1.32787
H          4.80132       -1.36897        2.63509
C          1.38341       -2.70762       -0.76591
H          0.51708       -2.70465       -0.10530
C          3.43323       -1.65156       -1.51608
C          4.51116       -0.60080       -1.54923
H          4.44381        0.12740       -0.73820
H          4.45677       -0.02963       -2.48960
H          5.50439       -1.07485       -1.51313
C          1.52929       -3.73042       -1.69369
H          0.78375       -4.52681       -1.74914
C          3.55883       -2.69219       -2.44976
H          4.42324       -2.68545       -3.12037
C          2.62938       -3.72002       -2.54707
H          2.76591       -4.51120       -3.28864
C          2.06878        1.36407       -1.41336
H          1.74162        0.50825       -2.00541
C          2.75670        2.27961        0.72706
C          3.05184        2.17652        2.19640
H          4.02072        1.68892        2.38372
H          2.29853        1.57691        2.72328
H          3.08687        3.17545        2.65287
C          2.17088        2.61565       -2.00996
H          1.92858        2.73668       -3.06843
C          2.86517        3.52954        0.10261
H          3.17656        4.38786        0.70491
C          2.57731        3.70770       -1.24761
H          2.66281        4.69892       -1.69913
C         -0.93675        0.12309       -2.81478
H         -0.14067       -0.17066       -3.51486
H         -1.87888       -0.34325       -3.15038
H         -1.05156        1.21931       -2.84672
C         -2.79997       -2.09437       -1.11203
H         -1.95311       -2.21230       -1.79131
C         -3.85150       -0.90890        0.73147
C         -3.84433        0.17529        1.76567
H         -4.05873        1.16509        1.33024
H         -2.84317        0.24354        2.21923
H         -4.58400       -0.01874        2.55430
C         -3.84451       -3.01513       -1.13670
H         -3.82575       -3.84196       -1.85063
C         -4.89052       -1.84243        0.68858
H         -5.70512       -1.75596        1.41309
C         -4.90043       -2.88157       -0.23976
H         -5.72482       -3.59855       -0.24655
C         -0.95313        2.75747       -0.05080
H         -0.03447        2.43823        0.44582
C         -3.04959        2.19757       -1.13805
C         -4.10893        1.28019       -1.68315
H         -4.74711        0.86502       -0.88919
H         -3.69294        0.41812       -2.21754
H         -4.75788        1.83208       -2.37700
C         -1.15246        4.11300       -0.28271
H         -0.39563        4.83339        0.03462
C         -3.23934        3.57282       -1.34010
H         -4.14421        3.89834       -1.86046
C         -2.31664        4.52548       -0.92135
H         -2.50529        5.58572       -1.10720
