96
Cat167.ts34.5.log	Energy: -2388514.8105626
C          0.01176        0.97707       -3.56494
H         -0.07083        0.40950       -4.49630
H         -0.77569        1.72881       -3.43793
C          1.30807        1.27060       -3.04977
H          2.19057        0.84781       -3.54351
H          1.50366        2.27112       -2.64490
H          1.06035        1.00531       -1.44267
Co         0.39468       -0.19694       -1.98367
O         -1.61095        1.59701       -0.23114
C         -2.94401        0.07243       -2.14411
C         -1.89196       -1.12122        0.34014
O          1.10062       -2.43982        0.08756
C          3.34668       -1.55977       -1.29000
C          2.10229       -0.08748        0.98664
P          1.70079       -1.03066       -0.56442
P         -1.46185        0.12219       -0.98834
C          0.14775       -1.66844       -2.88622
O         -0.10103       -2.63862       -3.46140
C         -2.81202        2.24613        0.14374
H         -3.37331        2.53196       -0.76548
H         -3.45187        1.57709        0.73970
C         -2.45936        3.48921        0.92954
H         -3.39168        3.91672        1.33785
H         -1.85197        3.18510        1.79911
C         -1.71805        4.53381        0.10753
H         -2.37831        4.88894       -0.70383
H         -0.86699        4.04528       -0.39417
C         -1.23311        5.71447        0.93174
H         -2.07077        6.22894        1.43004
H         -0.53388        5.38850        1.71861
H         -0.71075        6.45791        0.31007
H         -2.55743       -0.49358       -3.00389
H         -3.07547        1.10690       -2.49724
C         -4.23819       -0.52504       -1.68617
C         -5.28940        0.25063       -1.18182
H         -5.18315        1.33596       -1.13446
C         -4.42427       -1.91403       -1.76153
H         -3.62966       -2.53602       -2.18478
C         -6.47264       -0.33929       -0.74328
H         -7.27712        0.28927       -0.35375
C         -5.60337       -2.50881       -1.31841
H         -5.72156       -3.59300       -1.38600
C         -6.63239       -1.72301       -0.79985
H         -7.55888       -2.18634       -0.45294
H         -0.92428       -1.57814        0.58850
H         -2.47949       -1.91108       -0.14986
C         -2.58085       -0.62728        1.57135
C         -3.93342       -0.89819        1.81284
H         -4.49679       -1.49737        1.09404
C         -1.87781        0.13967        2.51164
H         -0.82370        0.36892        2.33766
C         -4.56903       -0.39833        2.94757
H         -5.62700       -0.61720        3.11227
C         -2.51051        0.63903        3.64682
H         -1.94418        1.23988        4.36275
C         -3.86307        0.37724        3.86647
H         -4.36259        0.77118        4.75476
C          1.76016       -3.44721        0.82428
H          1.21927       -4.37971        0.59264
H          2.79291       -3.58648        0.45735
C          1.75989       -3.22633        2.32776
H          2.22673       -4.11590        2.78761
H          2.41449       -2.37839        2.59019
C          0.37618       -3.00351        2.92062
H         -0.26422       -3.87194        2.68634
H         -0.09863       -2.14680        2.41880
C          0.39385       -2.75703        4.41921
H          0.81780       -3.61370        4.96784
H          1.00279       -1.87268        4.66830
H         -0.62059       -2.57741        4.80523
H          3.30632       -1.15067       -2.30777
H          3.26066       -2.65350       -1.40124
C          4.63892       -1.17067       -0.64151
C          5.08947       -1.75506        0.55022
H          4.49598       -2.53530        1.03289
C          5.43737       -0.18326       -1.23291
H          5.09986        0.28803       -2.15959
C          6.29045       -1.35832        1.13509
H          6.61987       -1.82769        2.06518
C          6.64069        0.21267       -0.65516
H          7.24271        0.98716       -1.13621
C          7.07093       -0.36987        0.53593
H          8.01222       -0.05854        0.99453
H          2.86302       -0.64794        1.54665
H          1.16049       -0.14899        1.55504
C          2.53167        1.34044        0.82635
C          1.59986        2.34806        0.53516
H          0.53932        2.10097        0.43739
C          3.87722        1.69566        0.97642
H          4.61137        0.92831        1.22934
C          2.01735        3.66785        0.36931
H          1.28013        4.44108        0.14319
C          4.29173        3.01522        0.81171
H          5.34862        3.26619        0.93077
C          3.36386        4.00617        0.49852
H          3.68586        5.04202        0.36672
