70
Cat133.ts34.5.log	Energy: -2330775.4406398
C         -1.24427       -2.82312       -0.55602
H         -0.58860       -3.54232       -0.05781
H         -2.31558       -2.93841       -0.36803
C         -0.80961       -2.18456       -1.71880
H          0.17031       -2.44177       -2.13308
H         -1.54750       -1.84211       -2.45068
H         -0.20912       -0.50625       -1.44685
Co        -0.65243       -0.89718       -0.09381
O         -1.34838        1.86567       -1.46401
O         -3.38825        0.53632       -1.09846
O         -2.38775        1.64588        0.86272
O          1.91447       -0.76570        1.79182
O          2.33125       -1.70521       -0.56473
O          2.15036        0.78873       -0.08464
P          1.35771       -0.63911        0.28046
P         -1.86962        0.72615       -0.43888
C         -1.16962       -1.28753        1.51970
O         -1.51537       -1.56401        2.57881
C         -2.10805        3.00994       -1.80410
H         -2.43315        3.55069       -0.90116
H         -1.45363        3.65476       -2.40472
H         -2.99548        2.72733       -2.38992
C         -4.11063       -0.59160       -0.82557
C         -4.53351       -1.38208       -1.89455
H         -4.28266       -1.06954       -2.91017
C         -4.41506       -0.95697        0.48714
H         -4.08976       -0.31606        1.30782
C         -5.25489       -2.54730       -1.64692
H         -5.58325       -3.16616       -2.48537
C         -5.12603       -2.13155        0.72454
H         -5.35174       -2.42187        1.75329
C         -5.54624       -2.93146       -0.33750
H         -6.10305       -3.85119       -0.14601
C         -1.50364        2.00657        1.84275
C         -1.83377        1.72811        3.16893
H         -2.77140        1.21297        3.38380
C         -0.30400        2.65084        1.53434
H         -0.05818        2.85768        0.49187
C         -0.96028        2.09704        4.18819
H         -1.22032        1.87362        5.22549
C          0.56414        3.01115        2.56229
H          1.50270        3.51597        2.31880
C          0.24271        2.73786        3.89091
H          0.92669        3.02282        4.69327
C          2.97194       -0.02848        2.38148
H          3.14651       -0.47361        3.36986
H          3.89533       -0.08910        1.78775
H          2.68217        1.02503        2.50204
C          3.67386       -1.84172       -0.32359
C          4.59602       -1.03802       -0.99529
H          4.23982       -0.29405       -1.70980
C          4.10402       -2.80197        0.59299
H          3.35773       -3.41196        1.10470
C          5.95630       -1.19698       -0.73800
H          6.67906       -0.56795       -1.26322
C          5.46587       -2.95148        0.84289
H          5.80279       -3.70207        1.56198
C          6.39591       -2.14889        0.18172
H          7.46328       -2.26800        0.38043
C          1.98139        1.50502       -1.22832
C          2.04455        2.89687       -1.12664
H          2.23822        3.34081       -0.14874
C          1.77765        0.90321       -2.47343
H          1.77178       -0.18423       -2.55816
C          1.86469        3.68432       -2.25901
H          1.91330        4.77244       -2.17033
C          1.58701        1.70344       -3.59849
H          1.41472        1.22775       -4.56693
C          1.62162        3.09228       -3.49939
H          1.47415        3.71188       -4.38652
