90
Cat187.ts34.5.log	Energy: -2339228.1961990
C         -0.62396       -3.28316       -0.05314
H         -0.24500       -3.91840        0.75237
H         -1.70020       -3.37288       -0.23440
C          0.23797       -2.94039       -1.11508
H          1.27939       -3.28036       -1.11320
H         -0.18451       -2.85721       -2.12240
H          0.19275       -1.21079       -1.27190
Co         0.00648       -1.36649        0.18663
O         -1.64502        0.65354       -1.63393
C         -3.24279       -1.19556       -0.42521
C         -2.25712        1.06471        1.02394
O          1.89885        0.66358        1.63864
C          3.34134       -1.04967        0.03832
C          1.92129        1.15000       -1.03632
P          1.73367       -0.17551        0.21161
P         -1.72833       -0.19281       -0.20386
C         -0.02661       -1.62145        1.90320
O         -0.08454       -1.76741        3.04568
C         -2.32271        1.86519       -1.95452
H         -2.35056        2.50160       -1.05161
C         -3.74578        1.62380       -2.42609
H         -4.34421        1.09506       -1.67251
H         -3.75272        1.02026       -3.34673
H         -4.23756        2.58489       -2.64167
C         -1.48018        2.55229       -3.00924
H         -0.45975        2.70797       -2.63723
H         -1.42317        1.92881       -3.91498
H         -1.91514        3.52612       -3.28119
C         -3.59262       -1.65741       -1.69750
H         -3.04345       -1.28902       -2.56703
C         -3.93154       -1.70924        0.68245
H         -3.65102       -1.39302        1.69122
C         -4.62727       -2.57671       -1.86069
H         -4.88750       -2.92027       -2.86608
C         -4.96422       -2.62414        0.51263
H         -5.49261       -3.00565        1.39134
C         -5.33670       -3.07242       -0.76265
C         -6.46296       -4.04941       -0.93363
H         -6.35247       -4.91143       -0.25760
H         -7.43396       -3.58103       -0.70242
H         -6.51405       -4.42966       -1.96360
C         -3.57931        1.50690        1.17234
H         -4.37258        1.06714        0.56347
C         -1.27119        1.63433        1.83780
H         -0.23794        1.28659        1.76320
C         -3.89843        2.49663        2.09571
H         -4.93698        2.82602        2.19335
C         -1.59610        2.63049        2.75504
H         -0.80650        3.06113        3.37783
C         -2.91241        3.07900        2.90340
C         -3.26844        4.12310        3.92018
H         -2.40015        4.74459        4.18169
H         -4.06958        4.78380        3.55714
H         -3.62998        3.65509        4.85119
C          3.08633        1.26636        2.15186
H          3.73432        1.57448        1.31027
C          3.82970        0.27894        3.03360
H          4.17662       -0.59047        2.46041
H          3.16185       -0.07756        3.83264
H          4.70617        0.75868        3.49500
C          2.65656        2.49690        2.92873
H          2.12911        3.21681        2.28674
H          1.97813        2.20414        3.74484
H          3.52964        3.00281        3.36676
C          3.40276       -2.36650        0.50921
H          2.48970       -2.82013        0.90585
C          4.50673       -0.46884       -0.47587
H          4.48306        0.55287       -0.86297
C          4.60007       -3.07392        0.49131
H          4.62763       -4.09795        0.87440
C          5.70163       -1.18287       -0.49677
H          6.60360       -0.70995       -0.89580
C          5.77151       -2.49548       -0.01364
C          7.05387       -3.27203       -0.06793
H          7.92995       -2.60859       -0.03329
H          7.12810       -3.98638        0.76481
H          7.11960       -3.85330       -1.00304
C          1.77588        2.49784       -0.70350
H          1.55929        2.77625        0.32861
C          2.15496        0.81514       -2.37603
H          2.25538       -0.23522       -2.66411
C          1.89803        3.48770       -1.67755
H          1.78617        4.53765       -1.39242
C          2.27337        1.80519       -3.34392
H          2.46195        1.52126       -4.38314
C          2.15244        3.16196       -3.01292
C          2.23535        4.22345       -4.06947
H          2.95093        3.95324       -4.85983
H          1.25432        4.36730       -4.55331
H          2.53765        5.19249       -3.64719
