86
Cat141.ts34.5.log	Energy: -2055504.2878413
C         -0.65121       -2.98606       -1.12589
H         -0.94838       -3.79612       -0.45326
H         -1.38544       -2.78867       -1.91445
C          0.73188       -2.82921       -1.43268
H          1.46784       -3.45774       -0.92048
H          1.01969       -2.61891       -2.46924
H          0.90522       -1.16841       -1.35429
Co         0.07229       -1.38832       -0.15019
O         -0.92612        1.04663       -2.00656
C         -3.04815       -0.58359       -1.35359
C         -1.91117        1.21643        0.55739
O          1.19573        0.97675        1.82583
C          3.13519       -0.78040        1.15278
C          2.10013        1.24357       -0.61698
P          1.55466       -0.04931        0.55273
P         -1.41285        0.03146       -0.76325
C         -0.29368       -2.13997        1.37427
O         -0.56596       -2.67458        2.36343
C         -1.76028        1.65360       -2.95596
H         -2.22151        0.91380       -3.63320
H         -2.56483        2.25897       -2.50555
H         -1.13209        2.32224       -3.56367
H         -2.85062       -1.21590       -2.23597
H         -3.67274        0.25583       -1.69524
C         -3.75913       -1.39480       -0.27780
H         -3.03625       -2.09525        0.17292
H         -4.08264       -0.72395        0.53917
C         -4.97446       -2.18375       -0.76937
H         -4.62519       -2.85412       -1.57758
C         -5.52597       -3.05341        0.35417
H         -4.75426       -3.72914        0.75411
H         -6.37094       -3.66952        0.00952
H         -5.88728       -2.43055        1.18966
C         -6.05941       -1.27963       -1.34365
H         -6.93132       -1.86476       -1.67494
H         -5.70254       -0.70175       -2.20961
H         -6.41091       -0.56142       -0.58307
H         -0.96586        1.65500        0.91771
H         -2.25300        0.55538        1.37198
C         -2.92913        2.30679        0.26562
H         -2.50706        2.99577       -0.48406
H         -3.84313        1.87857       -0.18544
C         -3.34218        3.12466        1.49426
H         -2.41532        3.50326        1.96504
C         -4.18171        4.32574        1.07449
H         -3.64009        4.96676        0.36137
H         -4.46080        4.94594        1.94041
H         -5.11528        3.99885        0.58615
C         -4.08342        2.28062        2.52531
H         -4.37436        2.88509        3.39823
H         -3.47398        1.44284        2.89596
H         -5.00571        1.85726        2.09195
C          0.65489        0.47298        3.01930
H         -0.34864        0.04305        2.86769
H          1.29457       -0.30285        3.47538
H          0.57575        1.31315        3.72423
H          2.85909       -1.54292        1.90041
H          3.69679        0.00994        1.67609
C          3.95174       -1.41970        0.03817
H          3.28501       -2.05156       -0.57121
H          4.33379       -0.63546       -0.64070
C          5.13225       -2.26864        0.51534
H          4.72466       -3.04971        1.18481
C          5.79364       -2.96472       -0.66829
H          5.07158       -3.58020       -1.22729
H          6.61575       -3.62054       -0.34235
H          6.21586       -2.22659       -1.37081
C          6.14792       -1.45361        1.30778
H          6.99392       -2.07936        1.63175
H          5.70548       -1.00422        2.20944
H          6.55683       -0.63466        0.69155
H          1.17387        1.71663       -0.98404
H          2.49733        0.68929       -1.48303
C          3.08758        2.27072       -0.08832
H          2.69274        2.68657        0.85211
H          4.04406        1.78018        0.17061
C          3.37815        3.41674       -1.06100
H          2.40997        3.89490       -1.30285
C          4.26500        4.46301       -0.39612
H          3.81069        4.84396        0.53177
H          4.44561        5.32141       -1.06181
H          5.24674        4.03402       -0.13364
C          3.99700        2.92793       -2.36587
H          4.21534        3.76885       -3.04234
H          3.33359        2.23536       -2.90523
H          4.94762        2.40135       -2.17363
