90
Cat212.ts34.5.log	Energy: -2292649.6479009
C         -0.71519        0.53321       -3.38296
H         -0.42549       -0.16239       -4.17609
H         -1.76214        0.85124       -3.43953
C          0.24220        1.48685       -2.92765
H          1.27454        1.43847       -3.29203
H         -0.09023        2.52459       -2.78755
H         -0.02891        1.44739       -1.34174
Co        -0.01228       -0.01027       -1.57846
C         -2.41974        1.34899        0.47259
C         -3.20133       -1.14164       -0.83459
C         -1.31630       -1.23497        1.23946
C          2.29399       -1.09671        0.89758
C          3.20792        0.75977       -1.09803
C          1.38157        1.66261        0.92112
P          1.66794        0.25116       -0.22841
P         -1.71513       -0.22124       -0.24372
C          0.22363       -1.62557       -2.17324
O          0.27473       -2.69898       -2.60087
H         -1.56335        1.74788        1.05091
C         -3.63606        1.23783        1.38955
H         -3.46643        0.50968        2.19692
H         -4.48986        0.85749        0.80333
C         -3.99864        2.60007        1.97645
H         -4.87845        2.50571        2.63387
H         -3.16712        2.95200        2.61437
C         -4.26154        3.62466        0.87903
H         -4.47949        4.61275        1.31636
H         -5.16601        3.32584        0.31880
C         -3.08448        3.71574       -0.08529
H         -2.20871        4.13117        0.44551
H         -3.31273        4.41349       -0.90758
C         -2.70698        2.34971       -0.64834
H         -3.53083        1.96162       -1.27530
H         -1.82828        2.43660       -1.30364
C         -3.39192       -1.31704       -2.20832
C         -4.13884       -1.69442        0.05122
C         -5.44322       -2.52622       -1.80465
C         -5.25178       -2.37793       -0.43017
C         -4.50834       -1.99933       -2.69197
H         -2.63913       -0.93031       -2.89542
H         -4.63907       -2.12900       -3.76905
H         -6.31562       -3.06600       -2.18126
H         -5.97149       -2.80506        0.27266
H         -3.98533       -1.60828        1.12884
C         -1.06770       -2.60238        1.03383
C         -1.15054       -0.71580        2.52793
C         -0.49531       -2.88945        3.36434
C         -0.73759       -1.53585        3.58066
C         -0.66977       -3.42152        2.08416
H         -1.18771       -3.02613        0.03293
H         -0.48754       -4.48334        1.90192
H         -0.17574       -3.53123        4.18868
H         -0.61114       -1.10891        4.57902
H         -1.33098        0.34182        2.72157
H          1.46266       -1.25254        1.60948
C          3.56588       -0.74092        1.66955
H          3.44957        0.20638        2.21747
H          4.38455       -0.57944        0.94796
C          3.96183       -1.86239        2.62512
H          4.87724       -1.58316        3.17204
H          3.16920       -1.99253        3.38460
C          4.16402       -3.17282        1.87480
H          4.41874       -3.98556        2.57450
H          5.02678       -3.06652        1.19242
C          2.92356       -3.53468        1.06830
H          2.09370       -3.75403        1.76249
H          3.09449       -4.45369        0.48453
C          2.48960       -2.40789        0.13539
H          3.25296       -2.26207       -0.65040
H          1.56183       -2.69219       -0.37685
C          3.47500        0.16964       -2.33956
C          4.13008        1.67153       -0.56879
C          5.56239        1.37373       -2.49307
C          5.29728        1.97928       -1.26507
C          4.65020        0.46508       -3.02769
H          2.73844       -0.51813       -2.76466
H          4.84750       -0.00788       -3.99277
H          6.47858        1.61606       -3.03706
H          6.00638        2.69607       -0.84349
H          3.93355        2.14690        0.39493
C          1.22283        2.94447        0.36927
C          1.17119        1.50387        2.29444
C          0.62074        3.84798        2.52720
C          0.78775        2.58604        3.08964
C          0.85088        4.02533        1.16120
H          1.38991        3.09591       -0.70018
H          0.73334        5.01282        0.70844
H          0.31868        4.69372        3.14929
H          0.62000        2.43521        4.15905
H          1.28703        0.52457        2.75832
