90
Cat261.ts34.5.log	Energy: -2635684.0584864
C          0.01416        2.82384       -2.76348
H          0.30501        2.72615       -3.81322
H         -0.98615        3.24959       -2.62892
C          1.01824        3.11789       -1.80048
H          2.06822        3.14554       -2.11103
H          0.80710        3.85297       -1.01470
H          0.58335        2.11475       -0.56106
Co         0.42156        1.17520       -1.69118
C         -1.65688        0.88927        0.97630
C         -2.92705        1.55021       -1.56695
C         -1.97596       -1.17582       -1.10786
C          1.75462       -1.70974       -0.36135
C          3.60847        0.10819       -1.47940
C          2.36686        0.68899        1.09268
P          1.93671        0.10624       -0.61930
P         -1.47877        0.61622       -0.82763
C          0.50969        0.27956       -3.16994
O          0.52812       -0.30630       -4.16832
C         -1.14691       -0.05015        1.88565
C         -2.14377        2.10051        1.48576
C         -1.68864        1.39100        3.75166
C         -2.16715        2.34747        2.85769
C         -1.16943        0.19477        3.25668
H         -0.72958       -0.99094        1.52366
H         -0.77927       -0.56039        3.94329
H         -1.71017        1.58080        4.82704
H         -2.55827        3.29821        3.22861
H         -2.49396        2.88052        0.80702
H         -2.78577        2.60269       -1.27863
H         -2.71026        1.51036       -2.64516
C         -4.32262        1.08337       -1.29849
C         -4.94249        0.18021       -2.17483
H         -4.41741       -0.13625       -3.08013
C         -5.04898        1.50140       -0.17380
H         -4.60672        2.21169        0.52521
C         -6.21745       -0.32117       -1.92789
H         -6.69588       -1.02868       -2.60719
C         -6.32746        1.01569        0.08673
H         -6.89190        1.33821        0.96343
C         -6.89455        0.09954       -0.79073
F         -8.11463       -0.37303       -0.54319
H         -2.68834       -1.13447       -1.94697
H         -1.06808       -1.65262       -1.49717
C         -2.52653       -2.01342        0.00899
C         -1.79418       -3.11878        0.45984
H         -0.84297       -3.36202       -0.01741
C         -3.73968       -1.72397        0.64563
H         -4.32905       -0.86541        0.32666
C         -2.24193       -3.90690        1.51715
H         -1.66757       -4.76471        1.87173
C         -4.20483       -2.50305        1.70004
H         -5.14840       -2.27644        2.19963
C         -3.44614       -3.58532        2.12847
F         -3.88290       -4.32896        3.14623
C          1.44289       -2.49866       -1.47990
C          1.97751       -2.35106        0.86244
C          1.61078       -4.51362       -0.15641
C          1.89969       -3.74044        0.96506
C          1.38143       -3.88641       -1.38189
H          1.26107       -2.02639       -2.44785
H          1.14533       -4.48059       -2.26782
H          1.55858       -5.60187       -0.07669
H          2.07955       -4.21996        1.93013
H          2.23367       -1.77538        1.75255
H          3.38561       -0.23683       -2.50045
H          3.89008        1.16865       -1.56772
C          4.68544       -0.71681       -0.84703
C          5.57134       -0.17883        0.09637
H          5.52518        0.88422        0.34203
C          4.80913       -2.08080       -1.15145
H          4.14255       -2.52838       -1.89107
C          6.53057       -0.96561        0.73034
H          7.22225       -0.54487        1.46225
C          5.75950       -2.88282       -0.52926
H          5.85269       -3.94417       -0.76566
C          6.60766       -2.31490        0.41335
F          7.51865       -3.07738        1.01703
H          1.58837        0.27379        1.74892
H          3.32857        0.23791        1.38456
C          2.38028        2.18059        1.24742
C          3.42894        2.97608        0.76994
H          4.29136        2.51250        0.28846
C          1.29743        2.82271        1.86063
H          0.47032        2.22624        2.24706
C          3.40100        4.36338        0.88809
H          4.21691        4.98571        0.51654
C          1.24938        4.20795        1.98551
H          0.40356        4.70549        2.46336
C          2.30474        4.96484        1.49300
F          2.26907        6.29187        1.60808
