90
Cat296.ts34.5.log	Energy: -2416232.6379066
C          0.85541        2.88651       -1.19008
H          0.48904        3.79670       -0.70689
H          1.93786        2.74487       -1.09934
C          0.19483        2.42230       -2.35546
H         -0.69421        2.95169       -2.71142
H          0.79844        2.00950       -3.17144
H          0.00453        0.75474       -2.05682
Co        -0.29087        1.29121       -0.71199
C          2.60040       -0.44959       -1.05116
O          2.45136        1.08670        1.03137
O          1.04274       -1.06459        1.05164
C         -2.75650       -0.67141        0.54755
O         -3.08050        0.07108       -1.91101
O         -1.17614       -1.57290       -1.46773
P         -1.79310       -0.15363       -0.91040
P          1.36825        0.25268        0.09898
C         -1.16448        2.20166        0.49688
O         -1.72581        2.79993        1.30559
C          2.11931       -1.32113       -2.03906
H          1.04763       -1.53922       -2.08563
C          3.96652       -0.15461       -1.00281
H          4.33775        0.52374       -0.23270
C          2.99048       -1.90534       -2.95208
H          2.63789       -2.59107       -3.72489
C          4.84640       -0.72409       -1.92139
H          5.91573       -0.50524       -1.90453
C          4.34528       -1.59526       -2.88049
F          5.18189       -2.14493       -3.75799
C          2.00027        2.02787        1.98994
H          1.23163        2.67709        1.53821
H          1.52822        1.50055        2.83805
C          3.17959        2.84625        2.46470
H          2.82840        3.50753        3.27595
H          3.92609        2.16997        2.91798
C          3.83188        3.67332        1.36573
H          3.07651        4.35060        0.92968
H          4.13705        3.00013        0.54759
C          5.02846        4.47532        1.84943
H          4.74420        5.17924        2.64831
H          5.81208        3.81651        2.25741
H          5.47934        5.06227        1.03504
C          2.03590       -1.88368        1.65343
H          1.61163       -2.90108        1.67246
H          2.93823       -1.91541        1.01960
C          2.38261       -1.43362        3.05928
H          3.10580       -2.15868        3.47301
H          2.91122       -0.46799        3.00725
C          1.17875       -1.31930        3.98378
H          0.66634       -2.29705        4.03592
H          0.44989       -0.62354        3.53571
C          1.54202       -0.84831        5.38211
H          2.24813       -1.53937        5.87006
H          2.02206        0.14353        5.35363
H          0.65433       -0.76789        6.02746
C         -2.04960       -1.09735        1.68052
H         -0.95703       -1.12886        1.65187
C         -4.15426       -0.62253        0.58838
H         -4.70218       -0.29144       -0.29478
C         -2.72684       -1.47844        2.83380
H         -2.19310       -1.81288        3.72543
C         -4.84097       -0.99590        1.74104
H         -5.93062       -0.96209        1.79570
C         -4.11622       -1.41985        2.84816
F         -4.76876       -1.77748        3.95174
C         -3.03402        0.89241       -3.06471
H         -2.02316        1.31312       -3.18050
H         -3.23604        0.25314       -3.94000
C         -4.06277        1.99955       -2.96272
H         -4.05132        2.56306       -3.91274
H         -5.06721        1.54610       -2.88751
C         -3.83743        2.94462       -1.79086
H         -2.83065        3.38959       -1.86889
H         -3.82509        2.36151       -0.85590
C         -4.88306        4.04230       -1.69483
H         -4.89289        4.67175       -2.59957
H         -5.89473        3.62110       -1.57744
H         -4.69546        4.69973       -0.83278
C         -1.95334       -2.74667       -1.64364
H         -2.65740       -2.86273       -0.80014
H         -2.55100       -2.65529       -2.56629
C         -1.00802       -3.92589       -1.71203
H         -1.59276       -4.83320       -1.94299
H         -0.32103       -3.77649       -2.56416
C         -0.20763       -4.11470       -0.43080
H         -0.89956       -4.37808        0.38901
H          0.22939       -3.14294       -0.15299
C          0.88524       -5.16285       -0.55074
H          0.47740       -6.14782       -0.83058
H          1.62223       -4.87898       -1.31968
H          1.43174       -5.28879        0.39667
