106
Cat264.ts34.5.log	Energy: -2345233.1729873
C          0.90917       -2.51292       -2.38294
H          0.88571       -3.59247       -2.20677
H          0.29626       -2.20142       -3.23677
C          2.11984       -1.80696       -2.12099
H          2.96681       -2.33412       -1.66961
H          2.45422       -1.05578       -2.84781
H          1.52951       -0.43876       -1.39431
Co         0.70778       -1.44888       -0.69878
C         -0.60600        1.56815       -1.34109
C         -1.95129       -0.55442       -2.70337
C         -2.35802       -0.21197        0.12154
C          0.27207       -0.05754        2.34080
C          2.76936       -1.39038        2.04334
C          2.29778        1.19255        0.79664
P          1.51679       -0.45909        1.04447
P         -1.01777       -0.20900       -1.14322
C          0.11992       -2.85502        0.12648
O         -0.32795       -3.78863        0.64646
C          0.24405        1.92742       -2.40377
H          0.53964        1.17231       -3.13793
C         -0.93019        2.55882       -0.41332
H         -1.57671        2.32726        0.43485
C          0.75177        3.20833       -2.52635
H          1.41938        3.48048       -3.34632
C         -0.41033        3.85469       -0.51066
H         -0.67531        4.59062        0.24914
C          0.44333        4.18386       -1.56566
O          1.03293        5.38679       -1.73106
C          0.80777        6.38229       -0.77300
H          1.14638        6.06799        0.23029
H          1.38950        7.25849       -1.08569
H         -0.25856        6.66355       -0.71586
H         -2.69670        0.23942       -2.87616
H         -1.22304       -0.48895       -3.52921
C         -2.59767       -1.93280       -2.69080
H         -1.85626       -2.67554       -2.35015
H         -3.40841       -1.95516       -1.94172
C         -3.15621       -2.35033       -4.04351
H         -2.34054       -2.34326       -4.78976
H         -3.88597       -1.59631       -4.39155
C         -3.81327       -3.72339       -4.02961
H         -3.08029       -4.46830       -3.67286
H         -4.62710       -3.72672       -3.28275
C         -4.35895       -4.14735       -5.38350
H         -4.82719       -5.14250       -5.34070
H         -3.55937       -4.18875       -6.14073
H         -5.11890       -3.43752       -5.74856
H         -2.53222       -1.27774        0.34529
H         -1.89526        0.18514        1.03708
C         -3.67497        0.50022       -0.14990
H         -3.49233        1.52863       -0.50560
H         -4.22313       -0.00389       -0.96422
C         -4.54521        0.54304        1.10050
H         -3.97671        1.02196        1.91840
H         -4.73334       -0.49164        1.44291
C         -5.87201        1.26568        0.92473
H         -5.67886        2.29560        0.57558
H         -6.45087        0.78118        0.11850
C         -6.69786        1.30450        2.20089
H         -7.64661        1.84438        2.06047
H         -6.14590        1.80306        3.01449
H         -6.94311        0.28712        2.54726
C         -0.08753        1.25288        2.69182
H          0.47253        2.10344        2.30293
C         -0.48154       -1.10092        2.89274
H         -0.24691       -2.13753        2.64047
C         -1.18473        1.50850        3.50414
H         -1.47793        2.52993        3.75496
C         -1.57716       -0.86239        3.71865
H         -2.14529       -1.70935        4.10367
C         -1.95732        0.45434        4.00499
O         -3.04100        0.79703        4.72919
C         -3.89834       -0.21600        5.17878
H         -3.39216       -0.90307        5.87926
H         -4.72365        0.28089        5.70411
H         -4.31113       -0.80163        4.33861
H          3.26228       -0.68911        2.73899
H          2.19324       -2.09695        2.66426
C          3.77679       -2.16096        1.20533
H          3.21707       -2.80748        0.50899
H          4.35259       -1.46714        0.56857
C          4.73753       -2.99834        2.03605
H          4.15778       -3.69206        2.67221
H          5.29092       -2.34468        2.73519
C          5.72756       -3.79265        1.19542
H          5.16735       -4.43870        0.49662
H          6.30207       -3.09562        0.55959
C          6.68319       -4.63772        2.02192
H          7.38483       -5.19901        1.38631
H          6.13697       -5.36859        2.63986
H          7.28058       -4.01279        2.70546
H          1.47151        1.85744        0.49833
H          2.66909        1.54971        1.77274
C          3.38100        1.29911       -0.26472
H          4.26440        0.69655        0.00728
H          2.99854        0.87325       -1.20677
C          3.78822        2.74732       -0.50284
H          4.28547        3.14993        0.39863
H          2.87336        3.34997       -0.63588
C          4.68081        2.95413       -1.71706
H          5.62703        2.39995       -1.58499
H          4.18961        2.50224       -2.59731
C          4.96622        4.42182       -1.99381
H          5.59736        4.55611       -2.88548
H          5.48590        4.89499       -1.14473
H          4.02790        4.97693       -2.15682
