102
Cat271.ts34.5.log	Energy: -2719006.9573132
C         -0.75298       -0.08686       -3.70435
H         -0.66772       -0.99418       -4.31004
H         -1.74009        0.38504       -3.75448
C          0.39287        0.73571       -3.53962
H          1.35852        0.42623       -3.95409
H          0.26469        1.82436       -3.58297
H          0.26773        1.10347       -1.88502
Co        -0.01642       -0.33076       -1.84970
C         -1.46490        2.02542       -0.00207
C         -3.36495        0.37688       -1.36481
C         -2.11973       -0.68888        0.88200
C          1.40620       -1.27868        1.05879
C          3.18547       -1.17732       -1.16244
C          2.33798        1.25044        0.12304
P          1.67774       -0.35390       -0.50318
P         -1.69086        0.30773       -0.60361
C         -0.05491       -2.05458       -2.05016
O         -0.09873       -3.20285       -2.18842
C         -1.58285        3.05835       -0.95121
H         -1.96761        2.83234       -1.94999
C         -0.95940        2.35958        1.25422
H         -0.84825        1.58743        2.01605
C         -1.20460        4.35628       -0.65539
H         -1.29118        5.15573       -1.39390
C         -0.56265        3.66234        1.56518
H         -0.14490        3.86857        2.55065
C         -0.67148        4.66927        0.60464
O         -0.28269        5.94709        0.78406
C          0.36119        6.29446        1.97963
H          1.31065        5.74549        2.10199
H          0.58077        7.36787        1.91504
H         -0.28233        6.11790        2.85966
C         -4.34279        1.31841       -1.01043
H         -4.10093        2.11319       -0.30038
C         -3.71401       -0.62802       -2.26876
H         -2.96361       -1.37029       -2.55351
C         -5.61837        1.25964       -1.55017
H         -6.38332        1.99169       -1.28378
C         -4.99612       -0.70776       -2.81107
H         -5.22894       -1.50964       -3.51204
C         -5.95780        0.24427       -2.45579
O         -7.22009        0.26530       -2.92927
C         -7.61753       -0.72802       -3.83104
H         -7.54416       -1.73791       -3.38982
H         -8.66703       -0.52595       -4.08059
H         -7.01976       -0.70439       -4.75957
C         -1.85582       -2.06457        0.82422
H         -1.36088       -2.48292       -0.05205
C         -2.76863       -0.19466        2.01599
H         -3.03688        0.86257        2.07660
C         -2.20528       -2.90790        1.86405
H         -1.99767       -3.97790        1.81310
C         -3.08446       -1.02541        3.09256
H         -3.56604       -0.59737        3.97237
C         -2.79209       -2.39226        3.02449
O         -3.03372       -3.27866        4.01319
C         -3.44093       -2.79571        5.26123
H         -4.43027       -2.30701        5.21523
H         -3.51066       -3.66431        5.92882
H         -2.70744       -2.08277        5.67708
C          0.93202       -0.63092        2.20954
H          0.84974        0.45624        2.21848
C          1.50502       -2.67195        1.08842
H          1.86473       -3.20959        0.20719
C          0.56398       -1.34177        3.33814
H          0.17838       -0.83724        4.22565
C          1.13475       -3.40319        2.21788
H          1.21302       -4.49050        2.19579
C          0.64324       -2.73920        3.34703
O          0.21247       -3.34796        4.47034
C          0.10310       -4.74324        4.48173
H          1.08484       -5.23585        4.36711
H         -0.31768       -5.01787        5.45733
H         -0.57625       -5.10299        3.69039
C          4.29315       -1.50693       -0.36382
H          4.27396       -1.30578        0.70922
C          3.24015       -1.48687       -2.52001
H          2.37009       -1.25622       -3.13837
C          5.41195       -2.11149       -0.91036
H          6.27406       -2.37724       -0.29558
C          4.36092       -2.09274       -3.08903
H          4.36026       -2.32033       -4.15515
C          5.45845       -2.40647       -2.28254
O          6.58681       -2.99378       -2.72504
C          6.68906       -3.31913       -4.08287
H          6.61824       -2.42423       -4.72607
H          7.67526       -3.77959       -4.22316
H          5.91144       -4.03962       -4.39232
C          2.01783        2.45443       -0.51738
H          1.36260        2.44332       -1.38948
C          3.17158        1.31770        1.24498
H          3.43749        0.40639        1.78387
C          2.48758        3.67235       -0.05028
H          2.21198        4.60832       -0.53931
C          3.65071        2.53168        1.73230
H          4.28521        2.53491        2.61887
C          3.29887        3.72279        1.08788
O          3.67363        4.95210        1.50569
C          4.52891        5.05737        2.60948
H          5.48764        4.53874        2.43468
H          4.72577        6.12720        2.75491
H          4.06914        4.65100        3.52798
