94
Cat258.ts34.5.log	Energy: -2575368.7777242
C         -0.69014       -0.25149       -3.24681
H         -0.44630       -1.14703       -3.82624
H         -1.72930        0.07815       -3.34336
C          0.31716        0.71399       -3.02363
H          1.34144        0.53791       -3.36642
H          0.03981        1.77372       -3.05499
H          0.18985        1.06527       -1.33835
Co        -0.02192       -0.39017       -1.34110
C         -1.38135        1.57582        1.04620
C         -3.11557        0.83232       -1.13778
C         -2.60340       -1.01864        0.94906
C          1.72682       -1.54298        1.27397
C          3.31617       -0.85294       -1.00788
C          2.27933        1.22448        0.64800
P          1.76801       -0.36667       -0.13677
P         -1.71841        0.19179       -0.12434
C         -0.13999       -2.11023       -1.53630
O         -0.27532       -3.24633       -1.70274
C         -1.62786        1.48943        2.42106
C         -0.75583        2.73198        0.55681
C         -0.67623        3.68400        2.77293
C         -0.42331        3.78267        1.40544
C         -1.26939        2.52998        3.27763
H         -2.09878        0.59493        2.83305
H         -1.46100        2.43524        4.34954
H         -0.39570        4.49918        3.44414
H          0.06494        4.67119        0.99949
H         -0.50982        2.80171       -0.50602
C         -3.50275        2.16869       -1.20819
H         -3.02090        2.89739       -0.55341
C         -3.77066       -0.10236       -1.96755
O         -3.36307       -1.37804       -1.83905
C         -3.78637       -2.35185       -2.74780
H         -4.86607       -2.56270       -2.65087
H         -3.21840       -3.25999       -2.50994
H         -3.56964       -2.05505       -3.78906
C         -4.50636        2.58710       -2.08387
H         -4.79283        3.64047       -2.12107
C         -4.77590        0.30960       -2.84672
H         -5.27952       -0.41564       -3.48690
C         -5.13876        1.65572       -2.90110
H         -5.92572        1.97078       -3.59074
C         -2.05798       -2.28643        1.13717
H         -1.10411       -2.51940        0.66576
C         -3.84823       -0.72889        1.55263
O         -4.33323        0.51087        1.36617
C         -5.59981        0.85048        1.84678
H         -6.38304        0.18909        1.43710
H         -5.79133        1.87765        1.51141
H         -5.64474        0.81788        2.95003
C         -2.70270       -3.25801        1.90260
H         -2.24389       -4.23974        2.03428
C         -4.50584       -1.70115        2.31374
H         -5.46707       -1.48091        2.77885
C         -3.92849       -2.95961        2.48533
H         -4.45248       -3.70917        3.08402
C          2.51761       -2.69678        1.30083
C          0.77800       -1.35584        2.28822
C          1.44807       -3.41965        3.34640
C          0.64927       -2.27733        3.32386
C          2.37530       -3.62926        2.32705
H          3.24587       -2.87447        0.50689
H          2.99657       -4.52841        2.32785
H          1.34032       -4.15076        4.15136
H         -0.09857       -2.11094        4.10279
H          0.11869       -0.48582        2.26077
C          3.21893       -1.31903       -2.31688
H          2.21738       -1.40220       -2.74628
C          4.59530       -0.74285       -0.42134
O          4.63419       -0.33319        0.85718
C          5.86159       -0.11225        1.48726
H          6.44688       -1.04352        1.58629
H          5.62928        0.27272        2.48820
H          6.46787        0.63682        0.94857
C          4.35036       -1.66510       -3.05602
H          4.24799       -2.03157       -4.07939
C          5.73567       -1.07380       -1.16132
H          6.72761       -0.98775       -0.71669
C          5.60577       -1.53107       -2.47330
H          6.50531       -1.78988       -3.03775
C          2.30612        1.44544        2.02333
H          2.03982        0.63368        2.69998
C          2.67113        2.28049       -0.20119
O          2.65916        2.01398       -1.52236
C          3.08460        2.98362       -2.43350
H          2.45237        3.88853       -2.39689
H          3.00083        2.53241       -3.43014
H          4.13531        3.27477       -2.25922
C          2.68937        2.67479        2.55919
H          2.68969        2.81792        3.64159
C          3.06547        3.51250        0.32836
H          3.37367        4.32370       -0.33162
C          3.06929        3.70598        1.70928
H          3.37520        4.67375        2.11443
