102
Cat225.ts34.5.log	Energy: -2391251.7567223
C         -0.63272        1.04541       -3.09705
H         -0.24956        0.48296       -3.95329
H         -1.71089        1.22851       -3.15437
C          0.20258        2.04363       -2.50633
H          1.23160        2.15156       -2.86751
H         -0.23177        3.01690       -2.24431
H         -0.04313        1.79596       -0.92444
Co         0.09276        0.38226       -1.35059
C         -3.07210        1.15819        0.02682
C         -2.81419       -1.39033       -1.31121
C         -1.59060       -0.94816        1.30956
C          1.93840       -1.00159        1.23638
C          3.31800        0.63451       -0.88755
C          1.77085        1.84407        1.28540
P          1.71783        0.43352        0.06403
P         -1.78030       -0.14561       -0.38066
C          0.79949       -0.95183       -2.20223
O          1.36667       -1.74419       -2.82590
H         -2.76157        1.49463        1.03532
C         -4.52842        0.69184        0.12083
H         -4.63133       -0.19062        0.76567
H         -4.87270        0.39034       -0.88365
C         -5.43044        1.81215        0.63124
H         -6.47351        1.45955        0.68212
H         -5.13817        2.06038        1.66784
C         -5.32911        3.05775       -0.24088
H         -5.94637        3.87233        0.17212
H         -5.74177        2.83202       -1.24096
C         -3.88053        3.50697       -0.39178
H         -3.50659        3.84987        0.59098
H         -3.81064        4.37315       -1.07021
C         -2.98582        2.37716       -0.89067
H         -3.29945        2.09169       -1.91072
H         -1.94449        2.71758       -0.96689
H         -3.33349       -0.80522       -2.08510
H         -3.58927       -1.79409       -0.64193
C         -2.02524       -2.48371       -1.96237
C         -1.43509       -3.51369       -1.21721
H         -1.56410       -3.54507       -0.13317
C         -1.84156       -2.49022       -3.34991
H         -2.28656       -1.69058       -3.94767
C         -0.67815       -4.50604       -1.83537
H         -0.22184       -5.29322       -1.22986
C         -1.09353       -3.48518       -3.97309
H         -0.95910       -3.46245       -5.05708
C         -0.50307       -4.49542       -3.21760
H          0.09508       -5.26954       -3.70341
H         -0.94799       -0.23959        1.85359
H         -0.98208       -1.84706        1.13131
C         -2.80458       -1.25336        2.12558
C         -3.54774       -2.42747        1.93680
H         -3.20782       -3.17377        1.21513
C         -3.25281       -0.34090        3.09152
H         -2.67224        0.56702        3.27779
C         -4.72041       -2.65738        2.65322
H         -5.28544       -3.57707        2.48317
C         -4.42442       -0.56663        3.80877
H         -4.75571        0.16429        4.55049
C         -5.17101       -1.72273        3.58432
H         -6.09252       -1.90135        4.14301
H          0.97544       -0.96880        1.77663
C          3.03758       -0.92005        2.30040
H          2.96496        0.02061        2.86715
H          4.02901       -0.92266        1.82607
C          2.94732       -2.10393        3.26054
H          3.75533       -2.03865        4.00725
H          1.99696       -2.05062        3.82320
C          3.01446       -3.43165        2.51570
H          2.93699       -4.27531        3.22070
H          4.00169       -3.52074        2.02709
C          1.92217       -3.51706        1.45727
H          0.93563       -3.52998        1.95738
H          1.99509       -4.46178        0.89411
C          1.97155       -2.33767        0.49230
H          2.88853       -2.40092       -0.11823
H          1.12705       -2.39443       -0.20946
H          3.22770        1.64228       -1.32425
H          3.21894       -0.06602       -1.72873
C          4.63813        0.43384       -0.21193
C          5.32985       -0.77311       -0.38884
H          4.91153       -1.53151       -1.05617
C          5.21433        1.40328        0.61982
H          4.72259        2.36955        0.75073
C          6.52682       -1.02343        0.27647
H          7.04198       -1.97527        0.12561
C          6.41086        1.15641        1.28985
H          6.83554        1.92616        1.93890
C          7.06729       -0.06280        1.13089
H          8.00373       -0.25760        1.65857
H          2.78079        1.89599        1.71769
H          1.08886        1.54507        2.09721
C          1.34736        3.16466        0.72296
C          0.02698        3.60770        0.87400
H         -0.67918        2.99415        1.43966
C          2.23284        3.97089       -0.00339
H          3.27231        3.65958       -0.12877
C         -0.39831        4.80843        0.31074
H         -1.43338        5.13175        0.44220
C          1.81081        5.17041       -0.57319
H          2.52030        5.77977       -1.13806
C          0.49141        5.59239       -0.42233
H          0.15863        6.53222       -0.86867
