74
Cat205.ts34.5.log	Energy: -1910341.0918066
C          1.35378        0.39319        2.86108
H          0.94184       -0.02019        3.78660
H          2.38306        0.07068        2.66801
C          0.97046        1.71384        2.48497
H          0.21449        2.23420        3.07880
H          1.74437        2.40464        2.12674
H          0.75789        1.52771        0.85524
Co         0.07140        0.30257        1.31808
C          2.68638       -0.21302       -0.90469
C          2.26489       -2.33918        0.99943
C          0.50581       -2.01690       -1.24139
C         -2.60230       -0.02750       -0.92567
C         -2.47290        2.48167        0.46285
C         -0.56715        1.86848       -1.60643
P         -1.35300        1.10718       -0.10662
P          1.31991       -1.01626        0.09532
C         -1.01947       -0.60323        2.32234
O         -1.67901       -1.19350        3.06834
H          2.12453        0.39502       -1.64047
C          3.62480       -1.14154       -1.67770
H          3.06076       -1.82983       -2.32553
H          4.18341       -1.77146       -0.96325
C          4.62112       -0.34977       -2.52248
H          5.29747       -1.03971       -3.05332
H          4.06925        0.20549       -3.30276
C          5.41987        0.63462       -1.67689
H          6.10183        1.22382       -2.31134
H          6.05936        0.07062       -0.97363
C          4.49731        1.55245       -0.88401
H          3.93942        2.20230       -1.58295
H          5.08347        2.22461       -0.23636
C          3.50096        0.75689       -0.04774
H          4.05180        0.18882        0.72425
H          2.82164        1.43218        0.49167
H          3.18598       -1.86297        1.37488
C          1.52179       -2.98999        2.15589
H          0.57443       -3.44762        1.83863
H          1.27349       -2.25245        2.93000
H          2.58824       -3.09483        0.26371
H          2.13691       -3.77840        2.61752
H          1.27254       -2.55395       -1.82183
C         -0.54447       -2.99452       -0.73802
H         -1.22499       -2.51473       -0.01987
H         -0.08206       -3.85332       -0.23018
H          0.05299       -1.28464       -1.93124
H         -1.14817       -3.39325       -1.56819
H         -1.97245       -0.76765       -1.45031
C         -3.51536        0.63060       -1.96591
H         -2.92875        1.14288       -2.74259
H         -4.13238        1.40443       -1.47647
C         -4.43852       -0.38899       -2.62959
H         -5.09015        0.11763       -3.36025
H         -3.82643       -1.10734       -3.20490
C         -5.26972       -1.14771       -1.60398
H         -5.90126       -1.90255       -2.09998
H         -5.95997       -0.44370       -1.10446
C         -4.37472       -1.79903       -0.55876
H         -3.76407       -2.58424       -1.04004
H         -4.97932       -2.30567        0.21056
C         -3.44442       -0.78672        0.10218
H         -4.05015       -0.06870        0.68433
H         -2.80128       -1.29602        0.83037
H         -3.41546        1.99868        0.76795
C         -1.94843        3.32288        1.61256
H         -0.98433        3.79696        1.37650
H         -1.79518        2.69937        2.50387
H         -2.71570        3.10926       -0.41113
H         -2.66339        4.12057        1.86808
H         -1.36540        2.21274       -2.28122
C          0.39470        3.01247       -1.33460
H          1.22061        2.69959       -0.67913
H         -0.11105        3.86165       -0.85011
H         -0.04694        1.04734       -2.12815
H          0.83335        3.38316       -2.27401
