102
Cat218.ts34.5.log	Energy: -2391259.0029820
C          0.44944        0.92090        3.40093
H          0.31691        0.23244        4.24076
H          1.38240        1.49346        3.44662
C         -0.69954        1.57304        2.86334
H         -1.69926        1.29517        3.21578
H         -0.62902        2.64899        2.65160
H         -0.37211        1.49397        1.29086
Co        -0.04195        0.09663        1.63444
C          2.01866        1.82872       -0.51393
C          3.35894       -0.25461        1.03168
C          1.62071       -1.01502       -1.03003
C         -1.92984       -1.68079       -0.80068
C         -3.32642        0.05595        1.01519
C         -1.67386        1.20232       -1.03307
P         -1.67691       -0.14454        0.22528
P          1.70824        0.20370        0.34566
C          0.08613       -1.48307        2.34566
O          0.27160       -2.50755        2.85041
H          1.10983        1.94305       -1.13643
C          3.25388        1.94816       -1.40420
H          3.29748        1.13272       -2.14174
H          4.15618        1.84752       -0.77723
C          3.28363        3.30082       -2.11226
H          4.18043        3.37406       -2.74919
H          2.41185        3.37415       -2.78814
C          3.24486        4.45125       -1.11304
H          3.22463        5.42002       -1.63878
H          4.17503        4.44020       -0.51643
C          2.04907        4.32710       -0.17630
H          1.11789        4.45680       -0.75632
H          2.06407        5.13092        0.57800
C          2.00619        2.96595        0.50952
H          2.87769        2.85645        1.18110
H          1.11082        2.88542        1.14298
C          3.54835       -0.25610        2.41452
H          2.70761       -0.01417        3.06422
C          4.42627       -0.63084        0.20230
H          4.27599       -0.68015       -0.87890
C          4.79056       -0.59648        2.95143
H          4.93001       -0.59987        4.03532
C          5.67441       -0.97595        0.72320
C          6.80921       -1.36679       -0.17937
H          6.47651       -1.46646       -1.22210
H          7.61418       -0.61413       -0.15491
H          7.25488       -2.32550        0.12854
C          5.84385       -0.94725        2.11494
H          6.81242       -1.22004        2.54423
C          1.38247       -0.68614       -2.36849
H          1.30537        0.35621       -2.67755
C          1.70389       -2.36954       -0.67687
H          1.88262       -2.63587        0.36956
C          1.22017       -1.69529       -3.31868
H          1.02599       -1.42971       -4.36124
C          1.56178       -3.39045       -1.61816
C          1.69756       -4.82710       -1.20432
H          2.75924       -5.10332       -1.09415
H          1.21268       -5.01078       -0.23408
H          1.25322       -5.50678       -1.94532
C          1.30669       -3.03469       -2.94998
H          1.17852       -3.81761       -3.70246
H         -1.06337       -1.68396       -1.48717
C         -3.22641       -1.69116       -1.61300
H         -3.31786       -0.78480       -2.23049
H         -4.08074       -1.67396       -0.91520
C         -3.32335       -2.93930       -2.48475
H         -4.26404       -2.92324       -3.05926
H         -2.50261       -2.93320       -3.22526
C         -3.23185       -4.20362       -1.63983
H         -3.27067       -5.10130       -2.27844
H         -4.11189       -4.25579       -0.97341
C         -1.96087       -4.20229       -0.80076
H         -1.08833       -4.25855       -1.47412
H         -1.91866       -5.09570       -0.15669
C         -1.83204       -2.94476        0.05386
H         -2.62958       -2.93210        0.81881
H         -0.87769       -2.96313        0.59523
C         -3.50794       -0.50121        2.28471
H         -2.65884       -0.97727        2.78275
C         -4.40304        0.70133        0.39454
H         -4.26659        1.14520       -0.59511
C         -4.75432       -0.43138        2.90509
H         -4.89408       -0.87378        3.89454
C         -5.65354        0.79440        1.01148
C         -6.79724        1.49851        0.33982
H         -7.13381        2.36527        0.93103
H         -6.51493        1.86153       -0.65827
H         -7.66546        0.83057        0.22428
C         -5.81541        0.21291        2.27611
H         -6.78683        0.27364        2.77537
C         -1.38874        0.99154       -2.38481
H         -1.26775       -0.01857       -2.77492
C         -1.81799        2.52260       -0.58035
H         -2.04640        2.70283        0.47407
C         -1.22432        2.07790       -3.24589
H         -0.98600        1.90070       -4.29778
C         -1.66852        3.62003       -1.42945
C         -1.85280        5.01860       -0.91583
H         -2.89451        5.35420       -1.05185
H         -1.62385        5.08596        0.15738
H         -1.20784        5.73227       -1.44905
C         -1.35479        3.37950       -2.77467
H         -1.21512        4.22348       -3.45580
