98
Cat293.ts34.5.log	Energy: -2326085.7983094
C          0.64278       -2.64660       -2.00517
H          0.70422       -3.68799       -1.67577
H         -0.09758       -2.48702       -2.79740
C          1.83424       -1.86596       -2.01917
H          2.76294       -2.28779       -1.62174
H          2.02308       -1.21556       -2.88252
H          1.27331       -0.42505       -1.40951
Co         0.60753       -1.35302       -0.47499
C         -0.92298        1.50192       -1.33693
C         -2.31107       -0.83260       -2.22054
C         -2.40295       -0.10429        0.55881
C          0.52555        0.42225        2.38661
C          3.02094       -0.85159        1.91151
C          2.25270        1.51670        0.41423
P          1.59806       -0.10977        0.98419
P         -1.21797       -0.24569       -0.84729
C          0.20156       -2.64743        0.60473
O         -0.12450       -3.51341        1.30078
C         -1.18534        2.60121       -0.51064
H         -1.70262        2.46399        0.44024
C         -0.24316        1.73316       -2.54403
H         -0.00142        0.89109       -3.19852
C         -0.76485        3.88621       -0.86021
H         -0.95111        4.74427       -0.21148
C          0.16822        3.00696       -2.91562
H          0.70548        3.18721       -3.84870
C         -0.08724        4.07086       -2.05644
F          0.35172        5.28702       -2.38342
H         -3.10462       -0.09177       -2.41214
H         -1.68579       -0.86827       -3.12848
C         -2.89267       -2.21148       -1.93932
H         -2.08671       -2.87976       -1.59135
H         -3.61003       -2.14812       -1.10267
C         -3.58540       -2.83023       -3.14495
H         -2.86217       -2.90882       -3.97744
H         -4.38100       -2.15155       -3.50337
C         -4.17891       -4.20330       -2.86277
H         -3.37954       -4.87154       -2.49688
H         -4.90064       -4.12065       -2.03073
C         -4.85851       -4.82850       -4.07011
H         -5.27695       -5.81869       -3.83426
H         -4.15034       -4.95728       -4.90455
H         -5.68431       -4.19700       -4.43592
H         -2.50626       -1.13166        0.94651
H         -1.86199        0.43320        1.35310
C         -3.76972        0.52262        0.32467
H         -3.66754        1.48437       -0.20674
H         -4.37117       -0.12003       -0.34049
C         -4.52652        0.74499        1.62809
H         -3.91714        1.37865        2.29904
H         -4.63228       -0.22007        2.15642
C         -5.89878        1.37636        1.44391
H         -5.78510        2.33803        0.91235
H         -6.50490        0.73818        0.77653
C         -6.63920        1.59856        2.75281
H         -7.62449        2.06132        2.59070
H         -6.06815        2.25681        3.42731
H         -6.80145        0.64780        3.28563
C          0.15987        1.75442        2.61726
H          0.59627        2.55965        2.02631
C         -0.06343       -0.56998        3.18725
H          0.18301       -1.62172        3.02681
C         -0.78785        2.08808        3.58492
H         -1.08548        3.12390        3.75892
C         -0.99891       -0.25312        4.16526
H         -1.46670       -1.02487        4.77903
C         -1.36372        1.07725        4.34101
F         -2.28592        1.38691        5.24976
H          3.57132       -0.04385        2.42451
H          2.57489       -1.47935        2.70107
C          3.93769       -1.70400        1.04877
H          3.31907       -2.46135        0.53896
H          4.38153       -1.09222        0.24436
C          5.04763       -2.38298        1.83703
H          4.59992       -2.99458        2.64167
H          5.66056       -1.61871        2.34924
C          5.94721       -3.26017        0.97736
H          5.32695       -4.01678        0.46512
H          6.38969       -2.64511        0.17356
C          7.05189       -3.94820        1.76266
H          7.68361       -4.57374        1.11395
H          6.63666       -4.59862        2.54930
H          7.70782       -3.21370        2.25742
H          1.36280        2.11111        0.15288
H          2.73878        2.01508        1.27055
C          3.17104        1.50667       -0.79754
H          4.10919        0.96838       -0.57995
H          2.68002        0.94719       -1.61064
C          3.47795        2.91865       -1.27910
H          4.08701        3.44857       -0.52446
H          2.53041        3.48098       -1.34457
C          4.17003        2.97859       -2.63239
H          5.14450        2.46186       -2.57685
H          3.57004        2.40564       -3.36219
C          4.35952        4.40101       -3.13485
H          4.84025        4.42586       -4.12451
H          4.98699        4.98855       -2.44542
H          3.39076        4.92066       -3.21709
