106
Cat286.ts34.5.log	Energy: -2345235.8374490
C          1.66706       -1.92242       -2.89557
H          1.61818       -1.52499       -3.91353
H          2.69385       -2.05364       -2.53508
C          0.68531       -2.87802       -2.48797
H         -0.14521       -3.10511       -3.16516
H          1.01831       -3.77183       -1.94492
H          0.34804       -2.37962       -0.97960
Co         0.37184       -1.04841       -1.65230
C          1.24510        1.45942        0.45486
C          2.44754       -1.05520        1.14140
C          3.36710        0.45521       -1.12655
C         -2.21047        0.80321       -0.38390
C         -2.88498       -1.87750       -1.03400
C         -1.25224       -1.34274        1.27220
P         -1.43691       -0.85647       -0.49746
P          1.80254       -0.11258       -0.31285
C         -0.02706        0.13554       -2.85560
O         -0.23248        0.95004       -3.65329
C          1.21219        1.70896        1.83440
H          1.56709        0.95591        2.54111
C          0.78360        2.46926       -0.39906
H          0.76288        2.29862       -1.47835
C          0.72632        2.91016        2.33769
H          0.68597        3.10043        3.41210
C          0.31770        3.68559        0.08801
H         -0.04823        4.43410       -0.61460
C          0.26963        3.90818        1.46943
O         -0.21618        5.02660        2.04353
C         -0.72680        6.04200        1.22087
H         -1.60110        5.69860        0.64139
H         -1.04185        6.85396        1.88876
H          0.04022        6.43135        0.52836
H          1.58165       -1.25894        1.79253
H          3.15023       -0.43581        1.72040
C          3.07962       -2.37254        0.71758
H          2.40278       -2.86565       -0.00097
H          4.01961       -2.18005        0.16788
C          3.36996       -3.34165        1.86538
H          2.41165       -3.52170        2.39029
C          3.86232       -4.67682        1.31988
H          3.13970       -5.11272        0.61237
H          4.02810       -5.40685        2.12731
H          4.81772       -4.55158        0.78332
C          4.35595       -2.76640        2.87578
H          4.55989       -3.48336        3.68623
H          3.98105       -1.84149        3.33921
H          5.31818       -2.53056        2.39013
H          3.03408        1.13680       -1.92800
H          3.78161       -0.42367       -1.64365
C          4.40004        1.12724       -0.23785
H          3.90178        1.89704        0.37625
H          4.81931        0.39230        0.47352
C          5.56113        1.78061       -0.99311
H          5.12337        2.51406       -1.69656
C          6.46138        2.54021       -0.02564
H          5.89481        3.29397        0.54310
H          7.27662        3.05801       -0.55475
H          6.92273        1.85169        0.70237
C          6.36403        0.77181       -1.80686
H          7.20261        1.25872       -2.32857
H          5.74875        0.26995       -2.56846
H          6.78849       -0.00801       -1.15146
C         -2.24383        1.55729        0.79828
H         -1.81885        1.16295        1.72177
C         -2.73445        1.38777       -1.54093
H         -2.70721        0.84565       -2.48898
C         -2.77613        2.83733        0.82247
H         -2.77832        3.42677        1.74116
C         -3.26933        2.67483       -1.53500
H         -3.65302        3.09377       -2.46540
C         -3.28481        3.41185       -0.34689
O         -3.74079        4.68137       -0.24239
C         -4.28214        5.29676       -1.37795
H         -5.15756        4.74546       -1.76344
H         -4.60272        6.30028       -1.07038
H         -3.53900        5.39180       -2.18949
H         -3.11974       -1.55939       -2.06315
H         -3.74775       -1.60188       -0.40719
C         -2.61297       -3.37349       -1.00124
H         -1.70568       -3.57799       -1.58932
H         -2.37969       -3.69302        0.03116
C         -3.75560       -4.24409       -1.52994
H         -3.98897       -3.89533       -2.55386
C         -3.30880       -5.69861       -1.62142
H         -2.41533       -5.80527       -2.25614
H         -4.10044       -6.33881       -2.04071
H         -3.05626       -6.09345       -0.62287
C         -5.02131       -4.11551       -0.68955
H         -5.82596       -4.75684       -1.08140
H         -5.40315       -3.08388       -0.66815
H         -4.82959       -4.42309        0.35277
H         -0.58251       -0.58442        1.71278
H         -0.66232       -2.27155        1.24574
C         -2.50929       -1.50885        2.11436
H         -3.21165       -0.68272        1.91573
H         -3.03862       -2.43016        1.81343
C         -2.23949       -1.56702        3.62057
H         -1.74648       -0.61613        3.90156
C         -3.55027       -1.65930        4.39224
H         -4.22116       -0.82144        4.14636
H         -3.37988       -1.64773        5.47995
H         -4.08235       -2.59419        4.14875
C         -1.30001       -2.70766        3.99743
H         -1.13626       -2.74374        5.08553
H         -0.31338       -2.60948        3.51930
H         -1.72379       -3.67968        3.69258
