94
Cat252.ts34.5.log	Energy: -2575448.0105524
C          0.71935       -1.38212       -3.49942
H          0.26985       -0.95144       -4.39770
H          1.80787       -1.48356       -3.52622
C         -0.04353       -2.27187       -2.71605
H         -1.09120       -2.46434       -2.96701
H          0.46127       -3.12493       -2.24965
H          0.05778       -1.71392       -1.11814
Co         0.07209       -0.41515       -1.82831
C          1.85098       -0.57200        1.05456
O          3.05192       -1.11079       -1.33402
O          2.59609        1.33953       -0.78548
C         -2.28251        1.51244       -0.35933
O         -2.96247       -0.93467       -1.42936
O         -1.59832       -0.92890        0.74639
P         -1.67032       -0.17262       -0.72480
P          1.83579       -0.15996       -0.72875
C         -0.13327        0.98981       -2.82912
O         -0.26258        1.91658       -3.49873
C          1.01422        0.16091        1.90692
C          2.57006       -1.65227        1.57797
C          1.64104       -1.23357        3.77105
C          2.46608       -1.97764        2.93022
C          0.91305       -0.16190        3.25548
H          0.42711        0.99475        1.51736
H          0.24392        0.41224        3.89991
H          1.55361       -1.49491        4.82817
H          3.03484       -2.82285        3.32504
H          3.22512       -2.24284        0.93835
C          4.36221       -1.29843       -0.99087
C          5.21786       -0.25157       -0.65226
H          4.84562        0.77086       -0.66085
C          4.82102       -2.62696       -1.05062
C          3.88135       -3.72104       -1.45639
H          4.38242       -4.69830       -1.44203
H          3.00583       -3.77013       -0.78822
H          3.48431       -3.54677       -2.46881
C          6.54527       -0.52826       -0.32793
H          7.21197        0.29433       -0.05877
C          6.15639       -2.87089       -0.72436
H          6.52593       -3.89945       -0.76214
C          7.01732       -1.83720       -0.35626
H          8.05696       -2.05554       -0.10287
C          2.76825        2.31908        0.15030
C          3.39622        2.07714        1.37447
H          3.75240        1.07492        1.61085
C          2.35597        3.61694       -0.20771
C          1.79332        3.88925       -1.56887
H          1.69900        4.96994       -1.74214
H          2.43677        3.46165       -2.35190
H          0.80146        3.43793       -1.71323
C          3.55843        3.11570        2.28881
H          4.03916        2.91427        3.24878
C          2.53566        4.63782        0.73029
H          2.22289        5.65147        0.46370
C          3.11576        4.39730        1.97509
H          3.23978        5.21518        2.68827
C         -3.62840        1.89921       -0.31752
C         -1.29225        2.46923       -0.10178
C         -2.97315        4.15200        0.28026
C         -1.63128        3.77794        0.22818
C         -3.96627        3.21378       -0.00215
H         -4.42191        1.17566       -0.50547
H         -5.01893        3.50448        0.02888
H         -3.24701        5.17875        0.53436
H         -0.84021        4.50220        0.43680
H         -0.24083        2.18187       -0.17308
C         -4.26437       -1.13271       -1.05516
C         -4.60918       -1.75085        0.14489
H         -3.83049       -2.07824        0.83176
C         -5.24360       -0.73344       -1.98212
C         -4.82851       -0.09240       -3.27009
H         -5.70158        0.15472       -3.88891
H         -4.25633        0.83210       -3.09019
H         -4.16537       -0.75634       -3.84598
C         -5.95404       -1.94412        0.45646
H         -6.22082       -2.41944        1.40305
C         -6.58194       -0.94700       -1.64509
H         -7.35647       -0.63778       -2.35239
C         -6.94358       -1.53921       -0.43482
H         -7.99823       -1.69004       -0.19436
C         -2.05646       -0.83337        2.02380
C         -2.62060        0.31039        2.58634
H         -2.75417        1.21013        1.99116
C         -1.85810       -1.99743        2.79049
C         -1.18908       -3.18179        2.16703
H         -1.13048       -4.02071        2.87348
H         -1.72111       -3.51750        1.26296
H         -0.16776       -2.91837        1.84839
C         -3.00560        0.29770        3.92724
H         -3.44781        1.19752        4.36128
C         -2.25772       -1.97932        4.12681
H         -2.10532       -2.87837        4.73030
C         -2.83001       -0.84448        4.70184
H         -3.13361       -0.85425        5.75086
