110
Cat206.ts34.5.log	Energy: -2206140.7870958
C          0.36140        0.74525        2.92369
H          0.51759       -0.03151        3.67812
H          1.11495        1.53932        2.96085
C         -0.97259        1.08320        2.56522
H         -1.80720        0.52362        2.99725
H         -1.22166        2.14364        2.43296
H         -0.86938        1.18977        0.89499
Co        -0.05075       -0.01618        1.10885
C          0.78887        2.38334       -1.21881
C          2.75735        1.92530        0.82073
C          2.45670        0.05148       -1.32660
C         -0.86065       -1.92805       -1.65997
C         -2.77847       -1.99732        0.48916
C         -2.56202        0.32961       -1.20204
P         -1.50875       -0.86680       -0.25261
P          1.43653        1.01879       -0.11111
C          0.59973       -1.52171        1.66203
O          1.05773       -2.49930        2.08222
H         -0.04966        1.88976       -1.74612
C          1.74002        2.94202       -2.27781
H          2.14304        2.13627       -2.90905
H          2.60711        3.41528       -1.78297
C          1.04105        3.97566       -3.15968
H          1.75097        4.38426       -3.89737
H          0.24805        3.46998       -3.74050
C          0.41856        5.09962       -2.34002
H         -0.11727        5.80391       -2.99700
H          1.22264        5.68025       -1.85239
C         -0.51545        4.54845       -1.26918
H         -1.38423        4.06677       -1.75276
H         -0.91944        5.36586       -0.64973
C          0.19736        3.52624       -0.39100
H          1.01076        4.03456        0.15649
H         -0.48566        3.12398        0.37326
H          3.35113        2.54157        0.12409
H          2.23022        2.62686        1.48872
C          3.66707        1.02828        1.64933
H          3.05624        0.27004        2.16889
H          4.34433        0.46852        0.98208
C          4.49753        1.79545        2.66844
H          3.81889        2.34101        3.34978
H          5.09170        2.57259        2.15313
C          5.42427        0.90746        3.48679
H          4.82356        0.12821        3.98810
H          6.10236        0.36577        2.80346
C          6.23921        1.67050        4.51835
H          6.89830        1.00189        5.09273
H          5.58584        2.19082        5.23724
H          6.87445        2.43427        4.04107
H          1.85346       -0.03978       -2.24763
H          3.34515        0.64675       -1.59951
C          2.86604       -1.33418       -0.85456
H          3.39136       -1.27243        0.11158
H          1.95903       -1.91913       -0.64609
C          3.73619       -2.07923       -1.85548
H          4.64575       -1.48866       -2.07074
H          3.20079       -2.15638       -2.82067
C          4.13614       -3.47071       -1.38497
H          4.69984       -3.38176       -0.43981
H          3.22537       -4.04068       -1.13159
C          4.95638       -4.24289       -2.40498
H          5.23768       -5.23926       -2.03160
H          5.88610       -3.70847       -2.65938
H          4.39428       -4.38602       -3.34228
H         -0.00033       -1.33722       -2.02583
C         -1.80690       -2.15729       -2.84197
H         -2.17337       -1.20306       -3.24643
H         -2.69638       -2.71570       -2.49737
C         -1.12181       -2.93913       -3.96166
H         -1.83196       -3.11043       -4.78721
H         -0.30660       -2.31965       -4.37824
C         -0.54218       -4.25927       -3.47098
H         -0.01178       -4.77432       -4.28833
H         -1.36768       -4.92772       -3.16573
C          0.38545       -4.03727       -2.28379
H          1.27040       -3.46486       -2.61269
H          0.76307       -4.99884       -1.90014
C         -0.31959       -3.27381       -1.16753
H         -1.16094       -3.89002       -0.80610
H          0.35236       -3.14129       -0.30798
H         -3.57868       -2.18175       -0.24926
H         -2.26703       -2.95983        0.65145
C         -3.35392       -1.53322        1.81755
H         -2.51523       -1.37473        2.51442
H         -3.84122       -0.54956        1.70556
C         -4.34514       -2.51888        2.41805
H         -3.85593       -3.50394        2.52934
H         -5.18180       -2.67952        1.71323
C         -4.89733       -2.07452        3.76539
H         -4.05588       -1.91178        4.46182
H         -5.38166       -1.08848        3.64957
C         -5.88229       -3.06057        4.37201
H         -6.26250       -2.71103        5.34389
H         -5.41343       -4.04472        4.53309
H         -6.75073       -3.21584        3.71146
H         -1.91647        0.72732       -2.00532
H         -3.36211       -0.24048       -1.70145
C         -3.16366        1.49165       -0.42921
H         -3.81479        1.11897        0.37921
H         -2.35840        2.04970        0.07369
C         -3.95120        2.44504       -1.31674
H         -4.80006        1.90993       -1.78019
H         -3.31058        2.76812       -2.15834
C         -4.46370        3.67312       -0.57803
H         -5.10604        3.34993        0.26014
H         -3.60715        4.19313       -0.11330
C         -5.22611        4.64045       -1.46841
H         -5.58455        5.51576       -0.90584
H         -6.10420        4.15673       -1.92597
H         -4.59083        5.01062       -2.28942
