102
Cat287.ts34.5.log	Energy: -2719004.5780671
C          0.96228        0.09147       -3.53563
H          0.68377        0.92394       -4.18888
H          2.02898       -0.15399       -3.54990
C          0.02459       -0.94126       -3.30532
H         -0.98732       -0.87695       -3.71796
H          0.38888       -1.97339       -3.24954
H          0.08218       -1.17301       -1.59705
Co         0.16546        0.29186       -1.68729
C          1.53150       -1.40251        0.87102
C          3.35693       -0.59475       -1.22182
C          2.52526        1.28283        0.72157
C         -1.86878        1.44572        0.72566
C         -3.21212        0.41536       -1.57924
C         -2.07595       -1.39998        0.30985
P         -1.68320        0.17086       -0.57847
P          1.83222       -0.05535       -0.34202
C          0.12952        1.99976       -1.98982
O          0.16457        3.13273       -2.22064
C          1.07863       -2.64774        0.40126
H          0.97472       -2.81295       -0.67436
C          1.59892       -1.22183        2.25256
H          1.93996       -0.26772        2.65966
C          0.73359       -3.66795        1.26938
H          0.37351       -4.62949        0.90105
C          1.21903       -2.22787        3.14370
H          1.26412       -2.03072        4.21512
C          0.78236       -3.46039        2.65393
O          0.37143       -4.48918        3.42560
C          0.32659       -4.30881        4.81081
H         -0.34936       -3.48227        5.09526
H         -0.05565       -5.24388        5.24034
H          1.32636       -4.10615        5.23493
C          3.89454       -1.87899       -1.17033
H          3.45374       -2.61224       -0.49198
C          3.95964        0.35321       -2.07560
O          3.40820        1.58028       -2.06119
C          3.77693        2.53303       -3.01474
H          4.81827        2.87322       -2.87466
H          3.09752        3.38348       -2.87655
H          3.66061        2.14365       -4.04146
C          4.99441       -2.23594       -1.95252
H          5.39835       -3.24919       -1.89550
C          5.06023        0.00256       -2.86265
H          5.52269        0.73734       -3.52273
C          5.57199       -1.29379       -2.79779
H          6.43287       -1.56106       -3.41561
C          1.88072        2.51651        0.77243
H          0.96377        2.64913        0.19965
C          3.72398        1.12301        1.45336
O          4.31059       -0.08510        1.39200
C          5.54546       -0.29831        2.00792
H          6.31614        0.39622        1.63040
H          5.84109       -1.32547        1.75922
H          5.48154       -0.19860        3.10629
C          2.38087        3.57714        1.52761
H          1.84568        4.52824        1.55253
C          4.23673        2.18471        2.20655
H          5.16128        2.06455        2.77187
C          3.56101        3.40485        2.24084
H          3.97135        4.22487        2.83582
C         -0.95371        1.47515        1.79073
H         -0.18252        0.70559        1.86380
C         -2.80476        2.47668        0.64225
H         -3.51653        2.49828       -0.18552
C         -0.99552        2.47338        2.75021
H         -0.27811        2.49793        3.57237
C         -2.84741        3.50060        1.58956
H         -3.58926        4.29210        1.48012
C         -1.94359        3.50112        2.65639
O         -1.90355        4.44237        3.62276
C         -2.81116        5.50469        3.56328
H         -3.85810        5.15686        3.62224
H         -2.60299        6.14721        4.42851
H         -2.68961        6.09946        2.64038
C         -3.07332        0.82174       -2.90438
H         -2.05904        1.00392       -3.26842
C         -4.51036        0.17991       -1.07741
O         -4.59981       -0.16125        0.21885
C         -5.83164       -0.52754        0.76610
H         -6.54668        0.31431        0.77332
H         -5.63000       -0.83511        1.80002
H         -6.28328       -1.37615        0.22310
C         -4.17852        0.98754       -3.73962
H         -4.04266        1.31041       -4.77375
C         -5.62242        0.32667       -1.91380
H         -6.62765        0.14052       -1.53432
C         -5.44947        0.72832       -3.23895
H         -6.32796        0.84305       -3.87920
C         -2.16061       -1.50697        1.69641
H         -2.01566       -0.61758        2.30975
C         -2.31046       -2.55786       -0.45993
O         -2.24394       -2.40223       -1.79757
C         -2.50421       -3.48593       -2.63925
H         -1.78545       -4.31005       -2.48354
H         -2.40109       -3.11412       -3.66642
H         -3.52822       -3.87505       -2.50007
C         -2.45183       -2.72057        2.31936
H         -2.50201       -2.77344        3.40904
C         -2.61268       -3.77539        0.15669
H         -2.79588       -4.66747       -0.44273
C         -2.67672       -3.85332        1.54737
H         -2.89776       -4.81170        2.02282
