78
Cat243.ts34.5.log	Energy: -2537078.7798888
C         -0.50766       -1.10937       -3.22170
H         -0.23422       -2.12391       -3.52607
H         -1.53989       -0.83472       -3.46204
C          0.48849       -0.10400       -3.22253
H          1.53019       -0.35750       -3.44738
H          0.21787        0.89868       -3.57373
H          0.22287        0.68301       -1.73112
Co         0.05165       -0.71877       -1.32000
C         -1.56495        1.87281        0.04262
C         -3.29615        0.01098       -1.30567
C         -2.33582       -0.62664        1.21657
C          1.86261       -1.17309        1.48880
C          3.37790       -0.71350       -0.88418
C          2.09309        1.47163        0.39849
P          1.76736       -0.26741       -0.10476
P         -1.71063        0.08767       -0.36393
C          0.07145       -2.42853       -1.01702
O          0.06238       -3.56828       -0.83001
C         -1.30500        2.32653        1.33980
C         -1.57065        2.80660       -1.00508
C         -1.10503        4.60047        0.54423
C         -1.36130        4.15905       -0.75474
C         -1.06720        3.67871        1.58687
H         -1.29364        1.61788        2.17089
H         -0.85382        4.01167        2.60531
H         -0.92403        5.65977        0.74038
H         -1.38695        4.87328       -1.58163
H         -1.74467        2.46851       -2.03077
C         -3.60588       -1.22134       -1.89866
H         -2.89010       -2.04464       -1.82599
C         -4.22466        1.05326       -1.40395
H         -4.01494        2.02096       -0.94339
C         -4.80880       -1.41538       -2.56868
H         -5.06068       -2.37219       -3.02955
C         -5.42929        0.87753       -2.08242
H         -6.15990        1.68403       -2.16818
C         -5.70556       -0.35638       -2.65648
F         -6.85462       -0.52946       -3.30581
C         -3.43648       -0.06430        1.88229
H         -3.91688        0.83119        1.48048
C         -1.75661       -1.78432        1.73894
H         -0.90631       -2.24146        1.23376
C         -3.93338       -0.63102        3.04882
H         -4.78691       -0.20315        3.57779
C         -2.24968       -2.37257        2.90304
H         -1.79877       -3.27535        3.31819
C         -3.32864       -1.78389        3.54473
F         -3.80333       -2.33155        4.66121
C          2.58981       -2.36313        1.60228
C          1.09261       -0.74405        2.57834
C          1.80122       -2.65717        3.86925
C          1.07182       -1.47310        3.76359
C          2.55405       -3.10200        2.78405
H          3.19072       -2.71664        0.76155
H          3.12469       -4.03088        2.85640
H          1.78014       -3.23410        4.79683
H          0.46787       -1.12172        4.60339
H          0.49794        0.16848        2.49617
C          3.38917       -1.69142       -1.88498
H          2.44189       -2.13907       -2.19531
C          4.59172       -0.13002       -0.49826
H          4.60544        0.64516        0.27090
C          4.58137       -2.09931       -2.47832
H          4.60295       -2.86410       -3.25673
C          5.78977       -0.51981       -1.08774
H          6.74264       -0.07188       -0.79979
C          5.76814       -1.50379       -2.07076
F          6.91194       -1.87814       -2.63716
C          2.66193        1.82290        1.63009
H          2.90391        1.05001        2.36193
C          1.81492        2.49080       -0.52038
H          1.37021        2.24058       -1.48543
C          2.92319        3.15389        1.94731
H          3.35559        3.43751        2.90854
C          2.08332        3.82164       -0.22488
H          1.85818        4.62009       -0.93309
C          2.62535        4.13790        1.01406
F          2.85923        5.41362        1.31414
