70
Cat263.ts34.5.log	Energy: -2049433.8099267
C          0.54936       -3.93587        0.63353
H          1.52534       -4.42685        0.69105
H         -0.08072       -4.12187        1.51047
C         -0.08211       -3.82631       -0.64083
H          0.45454       -4.14771       -1.53933
H         -1.15420       -4.05156       -0.70935
H         -0.67046       -2.29777       -0.57613
Co         0.67337       -2.04434       -0.00833
C         -1.84325       -0.06447        1.00828
C         -0.94276       -1.87930        3.02403
C          0.65447        0.42104        2.36981
C          1.31682        1.08458       -1.12977
C          1.91665       -0.95340       -3.00999
C         -0.83562       -0.21460       -2.47578
P          0.74849       -0.59777       -1.60769
P         -0.31951       -0.92653        1.55937
C          2.36483       -2.01901        0.36146
O          3.47968       -1.98953        0.67613
C         -2.93262       -0.84446        0.57816
H         -2.88490       -1.93394        0.66330
C         -1.93756        1.31789        0.84179
H         -1.11239        1.96601        1.13974
C         -4.06019       -0.27002        0.01703
H         -4.90376       -0.87771       -0.31604
C         -3.06260        1.91462        0.26416
H         -3.08509        2.99867        0.14783
C         -4.13469        1.12175       -0.15216
O         -5.26229        1.59463       -0.72003
C         -5.38405        2.97337       -0.92438
H         -4.59642        3.36073       -1.59530
H         -6.36198        3.13813       -1.39424
H         -5.34588        3.53535        0.02573
H         -1.57684       -2.68493        2.61911
C          0.18841       -2.46692        3.85486
H          0.75531       -1.68365        4.38033
H          0.89993       -3.01653        3.22093
H         -1.60004       -1.23641        3.63136
H         -0.19802       -3.16051        4.61740
H          0.88974        1.14130        1.57025
C          0.05671        1.11178        3.58604
H         -0.03801        0.42572        4.44065
H         -0.94529        1.51764        3.38224
H          1.62393       -0.04287        2.61519
H          0.69455        1.94948        3.90983
C          0.51761        2.23408       -1.21755
H         -0.48420        2.17976       -1.64453
C          2.58835        1.22371       -0.56002
H          3.23548        0.35052       -0.44743
C          0.96471        3.46167       -0.74603
H          0.33916        4.35438       -0.80914
C          3.05683        2.44978       -0.09464
H          4.05376        2.50477        0.34298
C          2.23854        3.58337       -0.17800
O          2.58824        4.80974        0.25580
C          3.84763        4.98390        0.84278
H          4.66549        4.74356        0.14083
H          3.92089        6.04241        1.12266
H          3.96690        4.36586        1.75026
H          2.89895       -0.58396       -2.67444
C          2.02377       -2.42317       -3.37934
H          1.07056       -2.83134       -3.74619
H          2.31638       -3.01440       -2.49907
H          1.62660       -0.32796       -3.87169
H          2.77787       -2.57539       -4.16694
H         -0.63989        0.59194       -3.20194
C         -1.49556       -1.39808       -3.16339
H         -1.66502       -2.22545       -2.45943
H         -0.88927       -1.78361       -3.99662
H         -1.51226        0.18960       -1.70594
H         -2.47344       -1.10416       -3.57393
