62
Cat292.ts34.5.log	Energy: -2030289.3410317
C         -3.74234        1.14627       -0.61966
H         -4.57470        0.79621       -0.00259
H         -3.68871        2.23790       -0.69642
C         -3.36017        0.36105       -1.74719
H         -3.85594       -0.59983       -1.92462
H         -3.13030        0.88152       -2.68524
H         -1.73133        0.31289       -1.64887
Co        -2.04593        0.17308       -0.19776
C          1.08480        1.51111       -0.46186
C         -1.01885        3.36431       -0.81400
C         -0.40283        2.39667        1.82800
C          0.68906       -1.69183        0.49015
C         -1.73525       -3.16005        0.32159
C         -0.51748       -2.17519       -2.11027
P         -0.92552       -1.65290       -0.38614
P         -0.64407        1.79156        0.09894
C         -2.65014       -0.23992        1.36250
O         -3.02032       -0.49837        2.42995
C          2.20519        1.58623        0.37284
H          2.09262        1.83192        1.42948
C          1.28599        1.17420       -1.80870
H          0.42262        1.09203       -2.47576
C          3.48629        1.33107       -0.11352
H          4.36064        1.36690        0.53895
C          2.55843        0.93037       -2.31455
H          2.72122        0.67237       -3.36284
C          3.64671        1.00625       -1.45205
F          4.86742        0.74269       -1.91947
H         -2.04545        3.64527       -0.52788
C         -0.05887        4.52467       -0.62169
H          0.97349        4.23878       -0.87585
H         -0.05830        4.88623        0.41800
H         -1.08123        3.07307       -1.87594
H         -0.33748        5.37688       -1.26128
H          0.40121        3.14980        1.86149
C         -1.68258        2.95344        2.43304
H         -2.49906        2.21888        2.39124
H         -2.02033        3.85922        1.90590
H         -0.05466        1.52505        2.40642
H         -1.52877        3.22626        3.48805
C          0.67972       -1.43027        1.86894
H         -0.26834       -1.24992        2.38335
C          1.92341       -1.88215       -0.13961
H          1.97713       -2.05672       -1.21472
C          1.86106       -1.37675        2.60147
H          1.86122       -1.17456        3.67420
C          3.11594       -1.82530        0.57858
H          4.08252       -1.95360        0.08818
C          3.06889       -1.57336        1.94161
F          4.20737       -1.49727        2.63049
H         -1.82584       -2.96855        1.40273
C         -3.10755       -3.41151       -0.28119
H         -3.04698       -3.65787       -1.35322
H         -3.73806       -2.51480       -0.18237
H         -1.06711       -4.02850        0.20750
H         -3.61556       -4.24781        0.22232
H          0.23070       -1.44788       -2.46629
C         -0.06436       -3.60912       -2.33851
H         -0.87388       -4.32497       -2.13403
H          0.78681       -3.88781       -1.69999
H         -1.42804       -1.95809       -2.69108
H          0.24284       -3.75646       -3.38560
