86
Cat268.ts34.5.log	Energy: -2336791.0603714
C          1.50477        0.31917        3.06701
H          1.05296        0.01179        4.01438
H          2.44498       -0.19515        2.83794
C          1.32909        1.65868        2.63535
H          0.70564        2.33675        3.22514
H          2.17277        2.16470        2.15223
H          0.91663        1.45862        0.98353
Co         0.13273        0.36726        1.58646
C          2.92728       -0.50232       -0.04404
O          1.64595       -2.49074        1.01744
O          0.57186       -1.40709       -1.04904
C         -2.72115        0.29787       -0.24432
O         -2.00409        2.63567        0.59940
O         -0.48633        1.59372       -1.16987
P         -1.23325        1.21814        0.25022
P          1.23748       -1.00616        0.41352
C         -1.06963       -0.42956        2.57008
O         -1.84658       -0.99579        3.20700
C          4.07056       -1.27413        0.20070
H          3.96076       -2.24043        0.69610
C          3.07516        0.73806       -0.67257
H          2.18565        1.34410       -0.87467
C          5.32451       -0.82041       -0.18272
H          6.22525       -1.40862        0.00358
C          4.32733        1.20065       -1.06988
H          4.40717        2.16825       -1.56593
C          5.46418        0.41869       -0.82315
O          6.71827        0.77715       -1.15972
C          6.92217        2.00364       -1.80253
H          6.59537        2.85446       -1.17885
H          8.00146        2.08987       -1.98133
H          6.39541        2.05262       -2.77204
C          0.67402       -3.28958        1.69563
H         -0.32614       -2.84571        1.54033
C          0.98076       -3.29850        3.17890
H          0.95102       -2.27922        3.58354
H          1.98415       -3.71600        3.35636
H          0.24467       -3.90830        3.72353
C          0.70220       -4.67714        1.08619
H          0.46441       -4.64327        0.01396
H          1.70174       -5.12396        1.20248
H         -0.02980       -5.33197        1.58206
C          1.14453       -2.34256       -1.96629
H          1.83966       -2.99758       -1.41154
C          1.90198       -1.61769       -3.06309
H          2.74316       -1.04221       -2.65579
H          1.23053       -0.92475       -3.59208
H          2.29912       -2.34031       -3.79215
C          0.00199       -3.17579       -2.51494
H         -0.53717       -3.68635       -1.70363
H         -0.71599       -2.53185       -3.04602
H          0.37431       -3.93668       -3.21721
C         -2.57935       -1.05782       -0.58403
H         -1.58541       -1.50987       -0.56553
C         -3.99435        0.86806       -0.28380
H         -4.11620        1.91488       -0.00131
C         -3.67527       -1.80871       -0.97288
H         -3.57586       -2.86113       -1.24594
C         -5.10682        0.11923       -0.66781
H         -6.08808        0.59417       -0.68433
C         -4.95158       -1.22683       -1.01772
O         -5.95911       -2.03298       -1.40172
C         -7.25818       -1.51400       -1.45567
H         -7.33859       -0.68143       -2.17686
H         -7.91076       -2.33240       -1.78518
H         -7.60067       -1.16064       -0.46712
C         -1.37823        3.65473        1.37718
H         -0.28307        3.52334        1.32144
C         -1.82357        3.51723        2.81912
H         -1.55384        2.52005        3.19557
H         -2.91597        3.63182        2.89246
H         -1.34716        4.27874        3.45518
C         -1.74894        4.98826        0.76216
H         -1.40896        5.04482       -0.28185
H         -2.84131        5.12500        0.77524
H         -1.28970        5.81556        1.32370
C         -1.18353        2.13201       -2.29383
H         -2.17082        2.49872       -1.96087
C         -1.37168        1.04815       -3.33698
H         -1.96581        0.21705       -2.93351
H         -0.39323        0.65275       -3.64797
H         -1.88742        1.44805       -4.22320
C         -0.37156        3.30556       -2.80467
H         -0.24363        4.05940       -2.01463
H          0.62755        2.96684       -3.12042
H         -0.86579        3.78051       -3.66549
