102
Cat298.ts34.5.log	Energy: -2421680.1600316
C         -0.70643        0.19139       -3.57024
H         -0.42797       -0.59445       -4.27837
H         -1.76207        0.47509       -3.63544
C          0.25266        1.19292       -3.25661
H          1.26317        1.12834       -3.67362
H         -0.08809        2.23367       -3.18552
H          0.11346        1.32656       -1.58165
Co         0.03377       -0.13643       -1.72859
C         -1.45771        1.50953        0.76018
C         -3.24813        0.68659       -1.31959
C         -2.20614       -1.27648        0.72419
C          1.43731       -1.18559        1.11757
C          3.23853       -0.97518       -1.08557
C          2.23393        1.49363        0.38750
P          1.73072       -0.13440       -0.36683
P         -1.70869        0.11377       -0.41883
C          0.26851       -1.78614       -2.18535
O          0.43979       -2.88486       -2.51356
C         -1.29876        1.36656        2.14280
H         -1.40488        0.38843        2.61158
C         -1.31303        2.79852        0.21853
H         -1.41911        2.94672       -0.85943
C         -0.97651        2.45521        2.95611
H         -0.83696        2.34017        4.03280
C         -1.01962        3.89819        1.01445
H         -0.91340        4.89883        0.59178
C         -0.83756        3.70874        2.38096
F         -0.51385        4.75187        3.14427
H         -2.80990        1.38861       -2.05548
C         -4.32623        1.46181       -0.56049
H         -3.88239        2.28472        0.01920
H         -4.82242        0.80259        0.16821
C         -5.37067        2.00681       -1.53247
H         -6.15391        2.54994       -0.97875
H         -4.89165        2.74787       -2.19839
C         -5.98876        0.89797       -2.37759
H         -6.70830        1.31858       -3.09878
H         -6.56780        0.22466       -1.71938
C         -4.92060        0.08556       -3.10177
H         -4.41942        0.72354       -3.85248
H         -5.38050       -0.74589       -3.66021
C         -3.87552       -0.45099       -2.12885
H         -4.36291       -1.15945       -1.43732
H         -3.09495       -1.01763       -2.66012
H         -1.35593       -1.29764        1.43241
C         -2.21104       -2.64638        0.03911
H         -1.26853       -2.80190       -0.50188
H         -3.00980       -2.68269       -0.71993
C         -2.42798       -3.76948        1.04956
H         -2.46539       -4.73871        0.52604
H         -1.55643       -3.81319        1.72430
C         -3.68544       -3.56295        1.88447
H         -3.78330       -4.36282        2.63631
H         -4.57567       -3.63674        1.23334
C         -3.67485       -2.19514        2.55550
H         -2.84673       -2.15218        3.28697
H         -4.60421       -2.03510        3.12630
C         -3.49550       -1.08381        1.52560
H         -4.35295       -1.10931        0.83246
H         -3.52240       -0.09710        2.01203
C          1.33567       -2.57563        0.93859
H          1.48666       -3.01506       -0.04958
C          1.21243       -0.67497        2.40156
H          1.27832        0.39638        2.58907
C          1.02527       -3.42311        1.99520
H          0.94950       -4.50277        1.85534
C          0.87851       -1.50946        3.46858
H          0.69263       -1.11046        4.46762
C          0.78653       -2.87596        3.25095
F          0.45118       -3.68056        4.25796
H          2.78041       -1.90485       -1.47139
C          4.38217       -1.39753       -0.16377
H          3.99618       -1.93195        0.71788
H          4.91268       -0.51060        0.21421
C          5.37429       -2.27243       -0.92697
H          6.20439       -2.56790       -0.26478
H          4.87186       -3.20814       -1.23253
C          5.90890       -1.55910       -2.16472
H          6.59763       -2.21577       -2.72066
H          6.50491       -0.68440       -1.84561
C          4.77674       -1.08733       -3.07104
H          4.25334       -1.96535       -3.49020
H          5.17884       -0.52596       -3.93013
C          3.76776       -0.23182       -2.31148
H          4.25283        0.70779       -1.99283
H          2.92307        0.04591       -2.95982
H          1.34956        1.72565        1.01206
C          2.34600        2.64100       -0.62056
H          1.45131        2.67360       -1.25730
H          3.20134        2.46200       -1.29437
C          2.52893        3.97857        0.09198
H          2.64096        4.78493       -0.65116
H          1.61002        4.20258        0.66014
C          3.71287        3.96907        1.05116
H          3.77574        4.92727        1.59184
H          4.65114        3.87459        0.47463
C          3.61582        2.80545        2.03012
H          2.74098        2.95093        2.69041
H          4.50101        2.77662        2.68613
C          3.47255        1.48123        1.28625
H          4.36527        1.33913        0.65535
H          3.45466        0.63684        1.99088
