90
Cat247.ts34.5.log	Energy: -2386709.7985949
C         -0.65155       -0.25207        3.38112
H         -0.36371        0.52373        4.09670
H         -1.70036       -0.55792        3.45288
C          0.31748       -1.20285        2.97838
H          1.35573       -1.11062        3.31538
H          0.00671       -2.24789        2.86118
H          0.08868       -1.26990        1.29038
Co        -0.02287        0.18022        1.51208
C         -1.66683       -1.53182       -0.83142
C         -3.40320       -0.28798        1.10534
C         -2.30355        1.27471       -0.89291
C          1.95142        1.67486       -0.80144
C          3.31362        0.13246        1.16973
C          1.97174       -1.19380       -0.94237
P          1.71569        0.18761        0.24899
P         -1.77440       -0.06299        0.26429
C          0.09195        1.85019        1.97287
O          0.14952        2.95811        2.29695
C         -1.31750       -1.43529       -2.18202
C         -1.78432       -2.80806       -0.25980
C         -1.26031       -3.84308       -2.37794
C         -1.60182       -3.95247       -1.02939
C         -1.10636       -2.58213       -2.94679
H         -1.21304       -0.45318       -2.64805
H         -0.81940       -2.48481       -3.99626
H         -1.10451       -4.74091       -2.98079
H         -1.71683       -4.93782       -0.57088
H         -2.02821       -2.90476        0.80198
C         -3.68133        0.58621        2.16203
H         -2.92288        1.30767        2.47719
C         -4.38355       -1.20186        0.70492
H         -4.18488       -1.88078       -0.12819
C         -4.91991        0.54192        2.79666
H         -5.13466        1.23223        3.61623
C         -5.62693       -1.26724        1.34247
C         -6.65944       -2.27090        0.91590
H         -6.76941       -3.07015        1.66736
H         -7.64865       -1.80329        0.79497
H         -6.38833       -2.74662       -0.03714
C         -5.88252       -0.38061        2.39510
H         -6.85024       -0.41300        2.90395
C         -3.31869        1.06990       -1.83971
H         -3.78728        0.08785       -1.93813
C         -1.74041        2.54242       -0.76609
H         -0.95475        2.70662       -0.02788
C         -3.73188        2.12060       -2.64911
H         -4.51805        1.95924       -3.39100
C         -2.16246        3.61954       -1.55905
C         -1.54559        4.97382       -1.37111
H         -1.74470        5.35895       -0.35848
H         -0.45121        4.92530       -1.48444
H         -1.93723        5.70231       -2.09504
C         -3.15788        3.38680       -2.50920
H         -3.49793        4.20954       -3.14458
C          2.87228        2.67546       -0.47354
C          1.11998        1.85928       -1.91475
C          2.15143        3.99440       -2.36826
C          1.22662        3.00318       -2.69957
C          2.96674        3.82992       -1.25044
H          3.52446        2.55127        0.39353
H          3.68938        4.60367       -0.98025
H          2.23265        4.89616       -2.98006
H          0.57079        3.12600       -3.56475
H          0.38084        1.09807       -2.17127
C          3.34923        0.61862        2.47882
H          2.42768        0.98651        2.93608
C          4.49170       -0.35038        0.58726
H          4.46728       -0.73972       -0.43387
C          4.55359        0.63768        3.18177
H          4.58024        1.02618        4.20285
C          5.70298       -0.34839        1.28303
C          6.95659       -0.88506        0.65468
H          7.28201       -1.81386        1.15099
H          6.80671       -1.11078       -0.41027
H          7.78659       -0.16639        0.73806
C          5.71748        0.15722        2.59044
H          6.65642        0.16925        3.15161
C          2.47560       -1.01682       -2.23470
H          2.69450       -0.01558       -2.60908
C          1.72117       -2.49360       -0.48758
H          1.32378       -2.63912        0.52019
C          2.70518       -2.12493       -3.05006
H          3.08950       -1.97938       -4.06283
C          1.96673       -3.61307       -1.28364
C          1.73074       -4.99878       -0.75962
H          2.68443       -5.49421       -0.51306
H          1.11648       -4.98247        0.15108
H          1.21915       -5.62703       -1.50415
C          2.45448       -3.40951       -2.58077
H          2.63814       -4.27155       -3.22848
