110
Cat228.ts34.5.log	Energy: -2206142.7232951
C         -0.88501       -1.43552       -2.74257
H         -0.80024       -2.52159       -2.84386
H         -1.85334       -1.04619       -3.07538
C          0.27825       -0.64114       -2.96519
H          1.23824       -1.13227       -3.15802
H          0.16887        0.27999       -3.55247
H          0.20164        0.43806       -1.73288
Co        -0.18252       -0.77745       -0.98403
C         -1.29277        2.28425        0.08187
C         -3.20268        0.76938       -1.42883
C         -2.66462        0.08546        1.31472
C          1.42608        0.16792        1.90680
C          2.87239       -1.66878        0.18632
C          2.57690        1.11380       -0.60776
P          1.62299       -0.30850        0.11189
P         -1.78197        0.50702       -0.26463
C         -0.33701       -2.36890       -0.32851
O         -0.42896       -3.44334        0.09435
H         -0.40734        2.17223        0.73516
C         -2.30418        3.15384        0.83001
H         -2.61524        2.67405        1.76975
H         -3.21834        3.26791        0.21997
C         -1.72983        4.53665        1.13361
H         -2.48473        5.15422        1.64728
H         -0.88803        4.42510        1.84147
C         -1.23401        5.23807       -0.12492
H         -0.78428        6.21193        0.12828
H         -2.09596        5.45546       -0.78168
C         -0.23920        4.36845       -0.88429
H          0.67668        4.24410       -0.27722
H          0.07387        4.86366       -1.81798
C         -0.82456        2.99419       -1.18964
H         -1.68118        3.11369       -1.87698
H         -0.08624        2.36997       -1.71730
H         -2.74667        1.01259       -2.40420
H         -3.77391        1.65790       -1.11414
C         -4.12107       -0.43597       -1.58276
H         -3.50814       -1.35075       -1.64374
H         -4.74527       -0.54559       -0.67792
C         -5.04041       -0.38184       -2.80511
H         -4.39179       -0.29220       -3.69768
C         -5.82932       -1.67973       -2.93041
H         -5.15968       -2.55219       -2.98297
H         -6.46085       -1.68308       -3.83243
H         -6.49198       -1.82081       -2.05994
C         -5.97150        0.82497       -2.77949
H         -6.63162        0.83705       -3.66072
H         -5.41697        1.77538       -2.76940
H         -6.61433        0.80256       -1.88289
H         -3.60256        0.66623        1.36149
H         -2.02709        0.46065        2.13308
C         -2.95524       -1.39709        1.51283
H         -3.34738       -1.83347        0.58232
H         -2.01553       -1.93995        1.70258
C         -3.94122       -1.70111        2.64299
H         -4.88336       -1.16624        2.41371
C         -4.24837       -3.19344        2.68423
H         -4.64489       -3.54842        1.72028
H         -4.98820       -3.43269        3.46405
H         -3.33541       -3.77355        2.89820
C         -3.44471       -1.21000        3.99802
H         -4.16858       -1.44154        4.79481
H         -3.27737       -0.12227        4.01015
H         -2.49119       -1.69678        4.26221
H          0.70587        1.00603        1.85373
C          2.66194        0.67766        2.64745
H          3.09914        1.53877        2.12034
H          3.43579       -0.11047        2.66679
C          2.32359        1.08417        4.08062
H          3.23593        1.41720        4.60193
H          1.64618        1.95732        4.05347
C          1.64955       -0.04557        4.84848
H          1.38817        0.28353        5.86724
H          2.36313       -0.88152        4.96503
C          0.41257       -0.54446        4.11219
H         -0.34810        0.25735        4.09119
H         -0.04584       -1.38847        4.65228
C          0.74339       -0.95869        2.68344
H          1.40508       -1.84243        2.71107
H         -0.16509       -1.26608        2.14656
H          2.43809       -2.45001        0.83215
H          3.78906       -1.31112        0.68005
C          3.16333       -2.26064       -1.18521
H          2.20353       -2.57081       -1.62886
H          3.56500       -1.48106       -1.85936
C          4.12796       -3.44765       -1.18298
H          3.71893       -4.20198       -0.48454
C          4.18846       -4.07792       -2.56950
H          3.19001       -4.39272       -2.91029
H          4.84545       -4.96144       -2.58357
H          4.58151       -3.35963       -3.30876
C          5.52217       -3.06339       -0.69908
H          6.20163       -3.92976       -0.71303
H          5.51218       -2.67000        0.32858
H          5.96055       -2.28743       -1.34988
H          2.10999        2.02245       -0.18577
H          2.31109        1.11679       -1.67466
C          4.09102        1.16571       -0.45222
H          4.38283        0.98586        0.59337
H          4.54854        0.34579       -1.03306
C          4.71714        2.48952       -0.90254
H          4.26896        3.29190       -0.28509
C          6.21826        2.47895       -0.63808
H          6.43955        2.28115        0.42250
H          6.68190        3.44107       -0.90561
H          6.71444        1.69383       -1.23289
C          4.42311        2.80752       -2.36448
H          4.90880        3.74705       -2.67021
H          3.34555        2.91612       -2.55790
H          4.80290        2.00740       -3.02240
