102
Cat202.ts34.5.log	Energy: -2437833.7966337
C          0.86889       -3.97832        1.19645
H          0.71073       -4.85571        0.56321
H          1.88136       -3.92118        1.61262
C         -0.21651       -3.51307        2.00144
H         -1.20067       -3.98502        1.89414
H         -0.01317       -3.24869        3.04720
H         -0.09133       -1.92409        1.82061
Co         0.11899       -2.30490        0.40009
O          2.69592       -0.32708        1.29347
C          3.40320       -2.26815       -0.32716
C          1.91930       -0.00706       -1.34242
O         -1.40010        0.03227       -1.12812
C         -3.07718       -2.07157       -0.18773
C         -2.06452        0.04775        1.57861
P         -1.55295       -1.02026        0.13302
P          1.94107       -1.20557        0.09821
C         -0.10188       -3.06779       -1.14312
O         -0.21781       -3.54408       -2.18966
C          1.98041        0.21255        2.39418
H          0.91574        0.30767        2.11034
C          2.54341        1.58712        2.68973
H          2.45131        2.24130        1.81285
H          3.61017        1.51107        2.95173
H          2.01133        2.04859        3.53587
C          2.08678       -0.73752        3.57266
H          1.69405       -1.72764        3.30107
H          3.14049       -0.85472        3.87047
H          1.52074       -0.36266        4.43933
H          3.54639       -2.91674        0.55024
H          3.06329       -2.91523       -1.15086
C          4.66254       -1.54234       -0.68192
C          5.06492       -1.41337       -2.01816
H          4.48400       -1.90019       -2.80659
C          5.43908       -0.93105        0.30901
H          5.12075       -1.01652        1.34969
C          6.20021       -0.67639       -2.34613
H          6.50525       -0.58371       -3.39129
C          6.57548       -0.17975       -0.00258
C          7.34469        0.51269        1.08497
H          6.79457        1.39768        1.44587
H          7.49937       -0.14751        1.95162
H          8.32880        0.85344        0.73315
C          6.94868       -0.05828       -1.34645
H          7.83736        0.52197       -1.60989
H          2.63741       -0.37357       -2.09088
H          0.90583       -0.08475       -1.75726
C          2.22757        1.41202       -0.98130
C          1.19436        2.30056       -0.66983
H          0.16227        1.94848       -0.70077
C          3.54897        1.87142       -0.92640
H          4.36233        1.18122       -1.16001
C          1.48380        3.62131       -0.32749
H          0.66640        4.31071       -0.10153
C          3.85569        3.18669       -0.57320
C          5.28400        3.64453       -0.49404
H          5.96654        2.89013       -0.91000
H          5.43747        4.58811       -1.04052
H          5.58287        3.82571        0.55184
C          2.80249        4.06377       -0.27794
H          3.02164        5.10083       -0.00766
C         -2.41649        0.54365       -1.99717
H         -3.38917        0.47342       -1.48736
C         -2.43087       -0.28642       -3.26767
H         -2.59827       -1.35238       -3.05749
H         -1.46333       -0.20019       -3.78509
H         -3.22107        0.06011       -3.95119
C         -2.12446        2.00341       -2.27052
H         -2.13240        2.58557       -1.33993
H         -1.14121        2.11923       -2.75097
H         -2.88922        2.41917       -2.94407
H         -2.93107       -2.47282       -1.20241
H         -2.87493       -2.91528        0.49006
C         -4.47671       -1.58238        0.02530
C         -5.05166       -1.62772        1.30198
H         -4.49182       -2.06607        2.13268
C         -5.25186       -1.07994       -1.02795
H         -4.84213       -1.08898       -2.04108
C         -6.33401       -1.12949        1.52117
H         -6.76667       -1.16709        2.52370
C         -6.53622       -0.56748       -0.82782
C         -7.31611        0.01766       -1.96897
H         -7.24245        1.11812       -1.96707
H         -6.93931       -0.33617       -2.93902
H         -8.38420       -0.23625       -1.90148
C         -7.06680       -0.58823        0.46872
H         -8.07120       -0.19521        0.64830
H         -2.83501       -0.51609        2.12606
H         -1.17565        0.08084        2.22268
C         -2.52746        1.44398        1.28725
C         -1.64177        2.51741        1.43349
H         -0.61541        2.33448        1.76083
C         -3.83924        1.71213        0.87887
H         -4.54843        0.88850        0.78282
C         -2.06362        3.81892        1.16891
H         -1.36713        4.65052        1.30106
C         -4.27278        3.00888        0.59108
C         -5.67191        3.24981        0.10239
H         -6.34680        2.43852        0.41111
H         -6.07566        4.20190        0.47704
H         -5.69703        3.29741       -0.99974
C         -3.36650        4.06529        0.74398
H         -3.68768        5.08931        0.53442
