78
Cat299.ts34.5.log	Energy: -2412589.4009240
C          0.72620       -0.33104        3.48469
H          0.28602       -1.13931        4.07592
H          1.81304       -0.24479        3.58379
C         -0.03806        0.83486        3.24715
H         -1.07846        0.89188        3.58536
H          0.46839        1.80659        3.27742
H          0.18322        1.11750        1.57311
Co         0.04830       -0.34913        1.57852
C          1.92039        1.37369       -0.56659
C          3.46160       -0.33571        1.17592
C          2.15998       -1.45124       -0.99110
C         -2.25297       -1.15840       -0.77256
C         -3.21668        0.37839        1.42222
C         -1.71282        1.65196       -0.61330
P         -1.69394        0.12424        0.41422
P          1.81800       -0.21756        0.34175
C         -0.34298       -2.02924        1.77483
O         -0.58821       -3.14901        1.91744
C          1.53600        1.49127       -1.90664
H          1.29283        0.59753       -2.48516
C          2.21550        2.54548        0.14621
H          2.49087        2.48399        1.20260
C          1.44894        2.73616       -2.52496
H          1.12635        2.83663       -3.56230
C          2.15544        3.79377       -0.46298
H          2.38646        4.70990        0.08371
C          1.76059        3.87229       -1.79348
F          1.65389        5.06942       -2.37002
C          3.61456       -1.38661        2.09057
C          4.55933        0.48835        0.90514
C          5.92255       -0.77562        2.45164
C          5.78018        0.27171        1.54386
C          4.83675       -1.60959        2.71848
H          2.76199       -2.03795        2.30209
H          4.94037       -2.43690        3.42476
H          6.88013       -0.94398        2.95020
H          6.62803        0.92536        1.32394
H          4.46848        1.30428        0.18486
C          1.41408       -2.62947       -1.05667
C          3.20835       -1.26082       -1.90387
C          2.72598       -3.38981       -2.93716
C          3.48407       -2.21815       -2.87431
C          1.69650       -3.59595       -2.02359
H          0.60407       -2.79873       -0.34720
H          1.10121       -4.51142       -2.05987
H          2.94581       -4.14400       -3.69681
H          4.30059       -2.05461       -3.58189
H          3.81669       -0.35441       -1.85124
C         -3.41781       -1.91025       -0.58650
H         -4.07313       -1.70084        0.26122
C         -1.43126       -1.45220       -1.86936
H         -0.51010       -0.88696       -2.02312
C         -3.75708       -2.93117       -1.47246
H         -4.66000       -3.52871       -1.33497
C         -1.76303       -2.45851       -2.76883
H         -1.12430       -2.69426       -3.62177
C         -2.92568       -3.19059       -2.55374
F         -3.24655       -4.16349       -3.40431
C         -3.33317       -0.31251        2.63383
C         -4.26520        1.20931        1.00892
C         -5.52463        0.63587        2.99117
C         -5.41111        1.33758        1.79112
C         -4.48448       -0.19231        3.41003
H         -2.50802       -0.95100        2.95978
H         -4.56454       -0.74224        4.35082
H         -6.42398        0.73899        3.60319
H         -6.22177        1.99145        1.46030
H         -4.18467        1.76148        0.06982
C         -1.24245        2.83540       -0.03049
C         -2.23023        1.70180       -1.91286
C         -1.79525        4.07751       -2.02614
C         -2.26305        2.90611       -2.61635
C         -1.29052        4.03861       -0.72676
H         -0.83161        2.81202        0.98167
H         -0.91445        4.95097       -0.25839
H         -1.81512        5.01993       -2.57820
H         -2.66412        2.92578       -3.63274
H         -2.61680        0.79507       -2.38169
