98
Cat290.ts34.5.log	Energy: -2779320.6270390
C          0.07844       -2.72898       -3.25218
H         -0.26172       -2.55229       -4.27650
H          1.11133       -3.08947       -3.19471
C         -0.86187       -3.19146       -2.29009
H         -1.91876       -3.26973       -2.56699
H         -0.56583       -3.98275       -1.59093
H         -0.45431       -2.28542       -0.97335
Co        -0.40334       -1.22948       -2.00765
C          1.72639       -0.98181        0.63594
C          2.97079       -1.42245       -1.96041
C          1.87989        1.21128       -1.32597
C         -1.87042        1.40344       -0.34964
C         -3.64641       -0.42886       -1.58204
C         -2.26417       -1.15482        0.87621
P         -1.94427       -0.38151       -0.78407
P          1.48375       -0.62112       -1.14273
C         -0.61446       -0.19708       -3.37952
O         -0.71265        0.49138       -4.30602
C          2.31716       -2.17567        1.07854
H          2.70851       -2.89588        0.35752
C          1.17066       -0.14403        1.60924
H          0.66731        0.77792        1.31439
C          2.39711       -2.49220        2.42742
H          2.86347       -3.41949        2.76592
C          1.23890       -0.44638        2.96862
H          0.80334        0.24969        3.68575
C          1.86901       -1.62255        3.39155
O          2.00030       -1.99975        4.67683
C          1.48085       -1.16983        5.67865
H          0.38719       -1.04852        5.58417
H          1.70152       -1.65703        6.63665
H          1.95140       -0.17102        5.66862
H          2.90008       -2.49585       -1.72781
H          2.73015       -1.33780       -3.03086
C          4.34037       -0.88364       -1.69162
C          4.88447        0.10107       -2.52991
H          4.32191        0.42891       -3.40827
C          5.11595       -1.31157       -0.60402
H          4.73541       -2.08377        0.06472
C          6.13059        0.66930       -2.28004
H          6.54933        1.43942       -2.93005
C          6.36697       -0.75980       -0.34148
H          6.96876       -1.09100        0.50669
C          6.85693        0.23457       -1.17916
F          8.05041        0.77050       -0.92922
H          2.59329        1.25851       -2.16348
H          0.94565        1.65788       -1.68806
C          2.38475        2.00960       -0.16054
C          1.57703        3.01919        0.37648
H          0.60351        3.21642       -0.07442
C          3.62569        1.77092        0.44282
H          4.27581        0.98678        0.05659
C          1.97377        3.76259        1.48523
H          1.33494        4.54280        1.90383
C          4.04201        2.50630        1.54817
H          5.00704        2.31929        2.02263
C          3.20716        3.49147        2.06189
F          3.59922        4.18937        3.12988
C         -2.08326        1.91276        0.94064
H         -2.27413        1.24047        1.77802
C         -1.65613        2.32487       -1.38117
H         -1.49085        1.97322       -2.40212
C         -2.06834        3.27744        1.18969
H         -2.22524        3.67097        2.19561
C         -1.65963        3.70013       -1.15225
H         -1.48785        4.37755       -1.98886
C         -1.85691        4.18757        0.14622
O         -1.84051        5.48972        0.48185
C         -1.59592        6.44288       -0.51678
H         -2.37033        6.42092       -1.30330
H         -1.61667        7.42381       -0.02608
H         -0.60679        6.29807       -0.98539
H         -3.49277        0.03627       -2.56767
H         -3.85410       -1.49293       -1.77255
C         -4.75226        0.24064       -0.82812
C         -5.57243       -0.46594        0.06190
H         -5.45176       -1.54580        0.17144
C         -4.96990        1.62092       -0.95626
H         -4.35565        2.19914       -1.64906
C         -6.55809        0.17192        0.81213
H         -7.19845       -0.38027        1.50218
C         -5.94795        2.27596       -0.21594
H         -6.11414        3.35010       -0.31451
C         -6.72895        1.54192        0.66818
F         -7.66615        2.16301        1.38393
H         -1.49474       -0.74284        1.54488
H         -3.24578       -0.80953        1.23820
C         -2.15903       -2.65024        0.88987
C         -3.16226       -3.48022        0.37532
H         -4.07586       -3.04470       -0.03229
C         -1.00639       -3.25682        1.40373
H         -0.21103       -2.63289        1.81278
C         -3.02349       -4.86589        0.36299
H         -3.80354       -5.51541       -0.03792
C         -0.84727       -4.63931        1.39818
H          0.05285       -5.10837        1.79964
C         -1.86113       -5.43020        0.87294
F         -1.72027       -6.75541        0.86318
