94
Cat201.ts34.5.log	Energy: -2527992.7859689
C          1.14585       -3.31893        0.45773
H          1.45565       -3.98538       -0.35106
H          1.94899       -3.08297        1.16326
C         -0.19436       -3.35747        0.91741
H         -0.92901       -3.98510        0.40428
H         -0.39730       -3.26308        1.99049
H         -0.55586       -1.72992        1.04324
Co         0.14581       -1.71769       -0.25452
O          1.01490        0.39294        1.97120
O          2.99888       -0.46482        0.79738
O          1.46241        1.15264       -0.45211
O         -2.06029       -0.62088       -2.28786
O         -3.03890       -1.26754       -0.11215
O         -1.61760        0.84835       -0.25044
P         -1.59166       -0.73692       -0.75309
P          1.36753       -0.20464        0.50633
C          0.60870       -2.11958       -1.89329
O          0.92731       -2.37470       -2.96811
C          1.90558        0.96111        2.94912
H          2.76638        1.40788        2.42739
C          2.38878       -0.14139        3.87064
H          2.93189       -0.90735        3.30152
H          1.53517       -0.61762        4.37777
H          3.06337        0.26691        4.63822
C          1.13522        2.04192        3.67546
H          0.80724        2.81975        2.97367
H          0.24887        1.61539        4.16911
H          1.76989        2.51091        4.44194
C          3.80338       -1.13471       -0.07892
C          3.68052       -0.98472       -1.45965
H          2.92547       -0.30700       -1.86266
C          4.77731       -1.98037        0.45741
H          4.85725       -2.07769        1.54161
C          4.50713       -1.70652       -2.33010
C          4.31944       -1.56937       -3.81239
H          4.41220       -0.51898       -4.13042
H          5.05791       -2.16154       -4.37034
H          3.31253       -1.90800       -4.10323
C          5.61369       -2.68018       -0.40413
H          6.37806       -3.34366        0.00782
C          5.47697       -2.55335       -1.78738
H          6.13139       -3.12024       -2.45418
C          1.99186        2.35391       -0.06283
C          3.36849        2.56671       -0.11879
H          4.01636        1.75497       -0.45666
C          1.12752        3.36655        0.35367
H          0.05597        3.16520        0.38796
C          3.90978        3.80157        0.25520
C          5.39102        4.03263        0.17180
H          5.95474        3.15310        0.51668
H          5.70013        4.22739       -0.86856
H          5.69905        4.89790        0.77560
C          1.66294        4.59783        0.72102
H          0.99671        5.39899        1.05050
C          3.03983        4.81301        0.67943
H          3.44786        5.78246        0.97711
C         -3.39221       -0.71024       -2.83105
H         -4.10741       -0.40458       -2.05241
C         -3.65251       -2.15064       -3.22007
H         -3.58282       -2.80363       -2.33862
H         -2.91225       -2.48505       -3.96282
H         -4.65830       -2.25782       -3.65340
C         -3.46410        0.25709       -3.99067
H         -3.28037        1.28448       -3.64745
H         -2.71171       -0.00028       -4.75155
H         -4.46037        0.21646       -4.45557
C         -3.19653       -1.61363        1.19952
C         -2.59767       -0.89060        2.23226
H         -1.98432       -0.01729        2.00071
C         -3.98746       -2.72975        1.47888
H         -4.44213       -3.27649        0.65103
C         -2.76081       -1.29425        3.56354
C         -2.06952       -0.53312        4.65679
H         -0.97586       -0.60416        4.54487
H         -2.32488        0.53737        4.62122
H         -2.33753       -0.91667        5.65081
C         -4.16688       -3.11736        2.80160
H         -4.78532       -3.98905        3.02884
C         -3.55322       -2.41216        3.83794
H         -3.69121       -2.73462        4.87296
C         -2.45915        1.80378       -0.75460
C         -3.78740        1.86957       -0.34054
H         -4.15438        1.13461        0.37933
C         -1.94496        2.72677       -1.66603
H         -0.90181        2.63908       -1.97373
C         -4.63665        2.86276       -0.84345
C         -6.06467        2.93463       -0.38541
H         -6.55368        1.95018       -0.44320
H         -6.12600        3.26344        0.66482
H         -6.64743        3.64216       -0.99143
C         -2.78395        3.72045       -2.16025
H         -2.39484        4.44930       -2.87527
C         -4.11827        3.78578       -1.75829
H         -4.76905        4.56684       -2.15967
