102
Cat240.ts34.5.log	Energy: -2297191.3930830
C         -0.70295        0.16400       -3.40710
H         -0.43451       -0.63732       -4.10170
H         -1.75430        0.46165       -3.47914
C          0.26948        1.15767       -3.10882
H          1.27960        1.07253       -3.52318
H         -0.05746        2.20394       -3.05587
H          0.12759        1.32149       -1.43731
Co         0.03073       -0.14267       -1.55983
C         -1.44666        1.57168        0.90276
C         -3.23784        0.73393       -1.16880
C         -2.22080       -1.21053        0.90443
C          1.42363       -1.14739        1.31799
C          3.21964       -1.02085       -0.89423
C          2.25316        1.50202        0.51087
P          1.72558       -0.13921       -0.19560
P         -1.70662        0.15906       -0.25490
C          0.24649       -1.80248       -1.98815
O          0.40761       -2.90733       -2.30069
C         -1.30842        1.44642        2.28973
C         -1.29282        2.85170        0.34286
C         -0.87288        3.81651        2.51732
C         -1.02385        3.96117        1.13634
C         -1.01325        2.55473        3.08705
H         -1.41496        0.47253        2.76743
H         -0.90037        2.42516        4.16657
H         -0.64906        4.68415        3.14221
H         -0.92076        4.94552        0.67320
H         -1.37780        2.98012       -0.73983
H         -2.79115        1.42035       -1.91410
C         -4.30992        1.53087       -0.42375
H         -3.85892        2.35865        0.14315
H         -4.81311        0.88750        0.31431
C         -5.34793        2.06997       -1.40590
H         -6.12709        2.62898       -0.86219
H         -4.86094        2.79604       -2.08248
C         -5.97504        0.95396       -2.23483
H         -6.68943        1.36987       -2.96393
H         -6.56145        0.29642       -1.56720
C         -4.91325        0.12026       -2.94405
H         -4.40487        0.74168       -3.70378
H         -5.38001       -0.71559       -3.49022
C         -3.87490       -0.41039       -1.96077
H         -4.37021       -1.10292       -1.25882
H         -3.09897       -0.99310       -2.48120
H         -1.37378       -1.22755        1.61656
C         -2.23181       -2.58924        0.23804
H         -1.28886       -2.75697       -0.29789
H         -3.02942       -2.63242       -0.52198
C         -2.45404       -3.69604        1.26456
H         -2.49419       -4.67310        0.75582
H         -1.58203       -3.72959        1.93953
C         -3.71310       -3.47220        2.09295
H         -3.81653       -4.25984        2.85725
H         -4.60164       -3.55416        1.44039
C         -3.70168       -2.09369        2.74216
H         -2.87641       -2.04085        3.47602
H         -4.63358       -1.92194        3.30562
C         -3.51275       -0.99870        1.69651
H         -4.36751       -1.02977        1.00016
H         -3.53535       -0.00514        2.16873
C          1.31641       -2.54140        1.18012
C          1.21682       -0.59551        2.58828
C          0.82444       -2.78672        3.53429
C          0.91288       -1.40557        3.68331
C          1.03292       -3.35136        2.27521
H          1.44764       -3.00716        0.20094
H          0.96497       -4.43346        2.14053
H          0.59403       -3.42185        4.39274
H          0.75181       -0.94748        4.66256
H          1.27982        0.48214        2.73769
H          2.74914       -1.95695       -1.24794
C          4.36243       -1.42669        0.03607
H          3.97382       -1.92889        0.93522
H          4.90405       -0.53399        0.38360
C          5.34185       -2.33605       -0.70287
H          6.17151       -2.61975       -0.03487
H          4.82784       -3.27525       -0.97681
C          5.87918       -1.66813       -1.96454
H          6.55858       -2.34946       -2.50213
H          6.48583       -0.79031       -1.67535
C          4.74847       -1.21264       -2.88099
H          4.21370       -2.09769       -3.26997
H          5.15316       -0.68328       -3.75903
C          3.75203       -0.32260       -2.14498
H          4.24850        0.62136       -1.85821
H          2.90775       -0.05625       -2.79860
H          1.37169        1.76317        1.12803
C          2.38058        2.61824       -0.52955
H          1.48885        2.64213       -1.17022
H          3.23705        2.41190       -1.19422
C          2.57180        3.97324        0.14623
H          2.69343        4.75800       -0.61837
H          1.65124        4.21761        0.70354
C          3.75314        3.98006        1.10895
H          3.82277        4.95181        1.62457
H          4.69197        3.86409        0.53716
C          3.64677        2.84292        2.11791
H          2.77246        3.01139        2.77321
H          4.53195        2.82427        2.77450
C          3.49188        1.50067        1.40945
H          4.38331        1.33352        0.78272
H          3.46506        0.67602        2.13665
