98
Cat276.ts34.5.log	Energy: -2530346.7858531
C          0.93350       -0.06127        3.64264
H          0.46440       -0.75125        4.35030
H          2.02813       -0.07343        3.66832
C          0.26484        1.14714        3.32301
H         -0.73892        1.34322        3.71602
H          0.86014        2.06329        3.22804
H          0.43581        1.22267        1.63700
Co         0.12876       -0.20729        1.80004
C          2.05981        1.03307       -0.60470
C          3.48698       -0.67571        1.22478
C          1.89790       -1.83525       -0.73212
C         -2.14935       -0.99388       -0.54668
C         -3.11128        0.66214        1.55891
C         -1.52286        1.81494       -0.48400
P         -1.57387        0.31883        0.59305
P          1.82196       -0.43382        0.46653
C         -0.44851       -1.79153        2.21099
O         -0.81174       -2.85217        2.49473
C          2.47465        2.23908       -0.01261
H          2.78341        2.24893        1.03663
C          1.65943        1.06862       -1.93955
H          1.34794        0.14737       -2.43657
C          2.49127        3.42316       -0.72835
H          2.82131        4.35755       -0.27095
C          1.63635        2.26128       -2.66534
H          1.28506        2.24759       -3.69685
C          2.04438        3.44924       -2.05776
O          2.02637        4.65949       -2.65704
C          1.58525        4.74220       -3.98385
H          0.54422        4.39104       -4.08979
H          1.63682        5.80109       -4.26766
H          2.22937        4.15860       -4.66506
C          3.57883       -1.64076        2.23455
H          2.67709       -2.16672        2.55962
C          4.64649       -0.01126        0.81345
H          4.58897        0.73442        0.01620
C          4.81242       -1.93324        2.80914
H          4.88077       -2.69446        3.59034
C          5.89086       -0.28417        1.39262
C          7.12050        0.46100        0.95886
H          7.98657       -0.21126        0.86353
H          6.96756        0.96149       -0.00785
H          7.39215        1.23732        1.69351
C          5.95831       -1.25721        2.39603
H          6.92246       -1.48930        2.85752
C          2.92247       -1.92624       -1.68362
H          3.67880       -1.14041       -1.75154
C          0.96017       -2.86426       -0.64396
H          0.16308       -2.79799        0.09667
C          2.98202       -3.02513       -2.53456
H          3.78048       -3.09447       -3.27778
C          1.01608       -3.98580       -1.48022
C         -0.00651       -5.07886       -1.36749
H          0.47030       -6.07089       -1.33996
H         -0.61187       -4.96085       -0.45784
H         -0.69615       -5.06690       -2.22698
C          2.03795       -4.04723       -2.43195
H          2.10151       -4.91203       -3.09900
C         -1.48893       -1.21014       -1.76677
H         -0.69125       -0.53304       -2.07765
C         -3.13879       -1.90105       -0.16554
H         -3.66551       -1.76474        0.78183
C         -1.82196       -2.27646       -2.58399
H         -1.30414       -2.44800       -3.52929
C         -3.46935       -2.99409       -0.96830
H         -4.24051       -3.68607       -0.62953
C         -2.81075       -3.18615       -2.18601
O         -3.04155       -4.21881       -3.02479
C         -3.99055       -5.18157       -2.65962
H         -4.99813       -4.74338       -2.54981
H         -4.01312       -5.92408       -3.46732
H         -3.71869       -5.68721       -1.71617
C         -3.19272        0.20438        2.87521
H         -2.33614       -0.31666        3.30885
C         -4.20307        1.34044        1.00289
H         -4.14137        1.71250       -0.02296
C         -4.35889        0.40825        3.61363
H         -4.42143        0.04279        4.64166
C         -5.37343        1.56006        1.73180
C         -6.53379        2.29887        1.12986
H         -6.72119        3.24532        1.66231
H         -6.35155        2.53946        0.07326
H         -7.46025        1.70623        1.18916
C         -5.43680        1.08018        3.04807
H         -6.34517        1.24201        3.63585
C         -2.15492        1.88409       -1.73046
H         -2.66095        1.00866       -2.14096
C         -0.89992        2.96272        0.01906
H         -0.40095        2.91540        0.99010
C         -2.14941        3.07844       -2.45033
H         -2.64431        3.12375       -3.42400
C         -0.89901        4.17044       -0.68191
C         -0.23014        5.39350       -0.12837
H          0.21534        5.19630        0.85618
H          0.56950        5.73385       -0.80485
H         -0.94698        6.22270       -0.01773
C         -1.53057        4.21084       -1.93142
H         -1.53884        5.14624       -2.49871
