90
Cat215.ts34.5.log	Energy: -3445939.7823163
C         -0.43674        0.18271       -3.55334
H         -0.27282       -0.66751       -4.22181
H         -1.38331        0.70497       -3.73060
C          0.68433        0.96683       -3.15648
H          1.69603        0.64977       -3.43289
H          0.58143        2.06019       -3.17547
H          0.33287        1.21629       -1.59559
Co         0.04516       -0.22952       -1.64238
C         -2.05281        1.89326        0.08954
C         -3.35087       -0.49356       -0.99018
C         -1.60356       -0.77452        1.18072
C          1.96353       -1.41879        1.11292
C          3.34025       -0.10278       -1.04096
C          1.65544        1.44364        0.69072
P          1.69374       -0.15189       -0.22703
P         -1.71498        0.13162       -0.41549
C         -0.06997       -1.92756       -1.99305
O         -0.24554       -3.03902       -2.25846
H         -1.14389        2.14864        0.66780
C         -3.28399        2.17698        0.94802
H         -3.31714        1.52770        1.83608
H         -4.18915        1.94501        0.36115
C         -3.32296        3.64537        1.36688
H         -4.21265        3.83581        1.98885
H         -2.44434        3.86945        1.99937
C         -3.31438        4.56640        0.15265
H         -3.30021        5.62164        0.46964
H         -4.25148        4.42272       -0.41512
C         -2.12650        4.26913       -0.75443
H         -1.19449        4.53512       -0.22492
H         -2.16373        4.89806       -1.65875
C         -2.06487        2.79618       -1.14620
H         -2.93918        2.53830       -1.77192
H         -1.17271        2.60094       -1.75926
C         -3.52928       -0.80617       -2.34072
H         -2.68595       -0.69630       -3.02268
C         -4.42366       -0.70001       -0.10992
H         -4.29863       -0.50866        0.95770
C         -4.75003       -1.27920       -2.81718
H         -4.88298       -1.52422       -3.87208
C         -5.64751       -1.17405       -0.56841
H         -6.47970       -1.33631        0.11854
C         -5.80582       -1.45409       -1.92650
Cl        -7.32742       -2.04461       -2.50346
C         -1.36364       -0.17273        2.41971
H         -1.35275        0.91312        2.51160
C         -1.62528       -2.17803        1.11979
H         -1.81773       -2.67502        0.16527
C         -1.10039       -0.93879        3.55650
H         -0.89206       -0.46216        4.51611
C         -1.38249       -2.95408        2.24454
H         -1.39330       -4.04343        2.18442
C         -1.09246       -2.32614        3.45790
Cl        -0.68684       -3.28597        4.84179
H          1.06780       -1.31936        1.75237
C          3.21704       -1.19864        1.96190
H          3.24750       -0.17990        2.37720
H          4.10536       -1.29302        1.31421
C          3.30874       -2.23138        3.08175
H          4.21214       -2.04865        3.68595
H          2.44575       -2.11569        3.76279
C          3.31720       -3.64635        2.51767
H          3.35306       -4.38734        3.33236
H          4.23579       -3.79141        1.92066
C          2.09674       -3.88596        1.63886
H          1.19388       -3.86007        2.27250
H          2.13319       -4.89084        1.18820
C          1.95911       -2.83699        0.53850
H          2.79613       -2.94076       -0.17575
H          1.03771       -3.01648       -0.03049
C          3.52792       -0.89557       -2.17963
H          2.68183       -1.46750       -2.57119
C          4.41669        0.65663       -0.56616
H          4.29209        1.28889        0.31596
C          4.76235       -0.95288       -2.81973
H          4.90818       -1.57546       -3.70388
C          5.65252        0.62253       -1.20546
H          6.49037        1.21763       -0.83849
C          5.81929       -0.18805       -2.32810
Cl         7.35436       -0.23614       -3.12585
C          1.29884        1.54134        2.03857
H          1.20597        0.64418        2.64974
C          1.78707        2.63393       -0.04334
H          2.08642        2.59247       -1.09360
C          1.01226        2.77501        2.62414
H          0.70722        2.83872        3.67011
C          1.51754        3.87094        0.52659
H          1.60734        4.78818       -0.05748
C          1.09794        3.93180        1.85689
Cl         0.65450        5.45715        2.54479
