82
Cat251.ts34.5.log	Energy: -2725815.7794918
C          0.56338       -3.44863       -1.89590
H          0.28730       -3.50200       -2.95231
H          1.61213       -3.69046       -1.69166
C         -0.41792       -3.75382       -0.91838
H         -1.44739       -3.95945       -1.22814
H         -0.11709       -4.33241       -0.03739
H         -0.24223       -2.53093        0.18939
Co        -0.08997       -1.73717       -1.05283
C          3.06587       -2.05938        0.10592
O          2.28846        0.34993       -0.92307
O          1.36959       -0.38676        1.39644
C         -1.46401        1.02283        0.31297
O         -2.99687       -0.51033       -1.28568
O         -2.38939       -1.40344        1.08601
P         -1.69973       -0.69374       -0.25566
P          1.62700       -0.96830       -0.15366
C         -0.17886       -0.98315       -2.61610
O         -0.20212       -0.44364       -3.63359
C          3.19005       -2.77497        1.30220
C          3.93560       -2.34447       -0.95569
C          5.07801       -3.98296        0.40311
C          4.94189       -3.29390       -0.80222
C          4.19551       -3.72824        1.45164
H          2.48508       -2.58707        2.11524
H          4.28825       -4.27716        2.39189
H          5.86826       -4.72807        0.52100
H          5.62427       -3.49802       -1.63055
H          3.83199       -1.81747       -1.90730
C          3.57424        0.75543       -1.14951
C          4.57304        0.75615       -0.17428
H          4.36164        0.40307        0.83445
C          3.85554        1.21234       -2.43916
H          3.05466        1.19838       -3.18106
C          5.84988        1.21100       -0.49383
H          6.64542        1.22041        0.25311
C          5.12887        1.67253       -2.75924
H          5.36836        2.03604       -3.76010
C          6.11482        1.66392       -1.77954
F          7.33873        2.09983       -2.08072
C          2.09649        0.59163        2.01507
C          1.97365        1.91903        1.59784
H          1.31203        2.15507        0.76473
C          2.93358        0.26883        3.08442
H          3.01680       -0.76860        3.40857
C          2.70166        2.91830        2.23338
H          2.62660        3.96023        1.91770
C          3.66132        1.26866        3.72729
H          4.32281        1.04125        4.56507
C          3.54122        2.58142        3.28895
F          4.24142        3.53845        3.89775
C         -1.14865        1.99737       -0.64385
C         -1.53274        1.37898        1.66131
C         -1.07612        3.68013        1.08730
C         -1.34151        2.70488        2.04631
C         -0.96751        3.32222       -0.25750
H         -1.05523        1.72520       -1.69815
H         -0.74140        4.07961       -1.01140
H         -0.93486        4.72051        1.38935
H         -1.39415        2.97593        3.10317
H         -1.72216        0.60857        2.40924
C         -3.78033        0.59140       -1.51143
C         -4.54826        1.18784       -0.51128
H         -4.53500        0.78847        0.50283
C         -3.80063        1.09917       -2.81126
H         -3.18228        0.61672       -3.57089
C         -5.33054        2.29967       -0.81234
H         -5.93707        2.78638       -0.04677
C         -4.58605        2.20624       -3.11669
H         -4.61770        2.62182       -4.12539
C         -5.34035        2.79656       -2.10936
F         -6.08905        3.86223       -2.39467
C         -3.72006       -1.49367        1.38099
C         -4.59757       -2.17682        0.53398
H         -4.21866       -2.61521       -0.38928
C         -4.19362       -0.93303        2.56859
H         -3.49918       -0.41731        3.23258
C         -5.94638       -2.27219        0.85997
H         -6.65099       -2.79057        0.20744
C         -5.54192       -1.03571        2.90335
H         -5.93218       -0.60608        3.82758
C         -6.40513       -1.69775        2.03969
F         -7.69710       -1.78896        2.35120
