90
Cat254.ts34.5.log	Energy: -2386710.1743852
C         -0.63837        2.28584       -2.37367
H         -0.54214        2.09135       -3.44579
H         -1.63133        2.64938       -2.08652
C          0.49816        2.74839       -1.65815
H          1.46572        2.80660       -2.16737
H          0.37968        3.55003       -0.91957
H          0.40326        1.86306       -0.27618
Co         0.10090        0.79014       -1.25159
C         -1.17015        0.51769        1.85359
C         -3.11894        1.29104       -0.06932
C         -2.19662       -1.44675        0.04284
C          1.93380       -1.78855        0.12235
C          3.27875       -0.09355       -1.73841
C          2.74573        0.81072        0.98268
P          1.91289       -0.03808       -0.45093
P         -1.54855        0.30582        0.06655
C          0.00933       -0.26548       -2.61920
O         -0.08865       -0.96343       -3.53811
C         -0.28382       -0.38588        2.46020
C         -1.64603        1.59015        2.61715
C         -0.37357        0.84682        4.53716
C         -1.25001        1.75328        3.94578
C          0.10732       -0.22768        3.78631
H          0.11385       -1.22762        1.88783
H          0.79473       -0.94955        4.23464
H         -0.06542        0.97545        5.57716
H         -1.63381        2.59878        4.52208
H         -2.32957        2.31986        2.18031
H         -2.80539        2.34882       -0.12511
H         -3.68705        1.16976        0.86557
C         -4.02293        0.95554       -1.22707
C         -5.40860        1.07574       -1.05853
H         -5.80185        1.40174       -0.09191
C         -3.54383        0.51158       -2.46463
H         -2.46853        0.41453       -2.61704
C         -6.28907        0.75777       -2.08824
H         -7.36597        0.85406       -1.92907
C         -4.42356        0.18295       -3.49537
H         -4.02331       -0.17173       -4.44832
C         -5.79944        0.30316       -3.31275
H         -6.48834        0.04365       -4.12018
H         -1.37166       -2.06471        0.42931
H         -2.30009       -1.70168       -1.02237
C         -3.47769       -1.71199        0.77534
C         -4.66826       -1.90621        0.06310
H         -4.65008       -1.87351       -1.02915
C         -3.52828       -1.76022        2.17646
H         -2.61253       -1.62640        2.75507
C         -5.87362       -2.12697        0.72565
H         -6.78821       -2.27101        0.14527
C         -4.73325       -1.97818        2.84012
H         -4.74858       -2.01161        3.93240
C         -5.91277       -2.15864        2.11811
H         -6.85744       -2.33022        2.63986
C          1.08916       -2.70337       -0.52006
C          2.76655       -2.25348        1.14907
C          1.89622       -4.49326        0.88669
C          2.74123       -3.59289        1.53291
C          1.07535       -4.04618       -0.14771
H          0.43570       -2.36129       -1.32436
H          0.41068       -4.74342       -0.66332
H          1.87834       -5.54338        1.18781
H          3.39636       -3.93595        2.33728
H          3.45587       -1.57540        1.65390
H          3.44063        0.95566       -2.03110
H          2.81039       -0.59205       -2.60041
C          4.54922       -0.77334       -1.34142
C          4.67328       -2.16549       -1.45856
H          3.84462       -2.74210       -1.87700
C          5.62896       -0.05909       -0.80483
H          5.57030        1.02941       -0.72626
C          5.82848       -2.82028       -1.04225
H          5.89970       -3.90588       -1.14350
C          6.78629       -0.71195       -0.38327
H          7.61532       -0.13182        0.02928
C          6.88866       -2.09700       -0.49643
H          7.79539       -2.61063       -0.16834
H          3.80264        0.50191        0.99812
H          2.26279        0.40494        1.88305
C          2.61534        2.30222        0.97987
C          1.62725        2.91619        1.75986
H          0.97978        2.29920        2.38575
C          3.43888        3.11490        0.19208
H          4.22238        2.66115       -0.41892
C          1.45758        4.29837        1.74074
H          0.67814        4.75366        2.35679
C          3.27294        4.49823        0.17189
H          3.92601        5.11312       -0.45208
C          2.27755        5.09604        0.94322
H          2.14519        6.18035        0.92623
