94
Cat200.ts34.5.log	Energy: -2527887.2057625
C         -0.55820       -2.79735       -1.55903
H         -0.21184       -3.72888       -1.10147
H         -1.61914       -2.78696       -1.82932
C          0.35259       -1.99087       -2.25507
H          1.40775       -2.27262       -2.33289
H         -0.00776       -1.39928       -3.10239
H          0.25762       -0.27980       -1.50999
Co        -0.01826       -1.19293       -0.39717
O         -1.56719        1.39775       -1.38102
C         -3.19005       -0.74901       -1.07978
C         -2.28824        0.79290        1.22279
O          1.77623       -0.19810        1.96358
C          3.33196       -1.21749       -0.07883
C          2.11100        1.41028       -0.18782
P          1.76207       -0.31988        0.30468
P         -1.71814        0.08305       -0.37658
C         -0.28714       -2.18650        1.00171
O         -0.48821       -2.82709        1.94076
C         -2.14736        2.68917       -1.22432
H         -2.45781        2.81717       -0.17334
C         -3.36235        2.85194       -2.11874
H         -4.12733        2.10380       -1.87554
H         -3.07884        2.74119       -3.17750
H         -3.79962        3.85388       -1.98598
C         -1.05640        3.69453       -1.53143
H         -0.19814        3.54515       -0.86345
H         -0.70488        3.56940       -2.56738
H         -1.42604        4.72430       -1.40974
C         -3.54449       -0.57493       -2.41485
H         -3.01535        0.18023       -2.99905
C         -3.82885       -1.76028       -0.33654
O         -3.39335       -1.90268        0.93001
C         -3.83265       -2.97916        1.70681
H         -4.90832       -2.89947        1.94471
H         -3.25026       -2.94656        2.63544
H         -3.64599       -3.94374        1.20380
C         -4.54757       -1.35034       -3.00285
H         -4.81533       -1.19566       -4.05040
C         -4.83488       -2.53683       -0.91361
H         -5.33913       -3.31100       -0.33400
C         -5.19358       -2.32240       -2.24738
H         -5.98004       -2.93557       -2.69428
C         -1.35528        0.82577        2.26030
H         -0.34886        0.44384        2.07510
C         -3.59807        1.24992        1.48438
O         -4.46715        1.22266        0.45636
C         -5.81413        1.52838        0.66970
H         -6.26436        0.87066        1.43330
H         -6.32451        1.36294       -0.28776
H         -5.95578        2.58029        0.97509
C         -1.68667        1.30627        3.52723
H         -0.93376        1.32058        4.31804
C         -3.94159        1.71444        2.75798
H         -4.95423        2.06107        2.96556
C         -2.98300        1.74372        3.77113
H         -3.26529        2.11259        4.76065
C          2.91817       -0.05248        2.80987
H          3.70976        0.48436        2.25903
C          3.41788       -1.42262        3.23464
H          3.74985       -2.01383        2.37133
H          2.60783       -1.97297        3.73765
H          4.26382       -1.32652        3.93248
C          2.48195        0.77362        4.00553
H          2.13697        1.77266        3.70343
H          1.65539        0.26767        4.52820
H          3.31488        0.89890        4.71336
C          3.18556       -2.58222       -0.33548
H          2.17404       -2.99505       -0.27833
C          4.62627       -0.66050       -0.15288
O          4.75108        0.64767        0.14358
C          5.96397        1.30729       -0.07723
H          6.76391        0.93604        0.58757
H          5.78084        2.36757        0.13883
H          6.29581        1.20698       -1.12526
C          4.27202       -3.39558       -0.65298
H          4.12586       -4.46117       -0.84032
C          5.71842       -1.46446       -0.49773
H          6.71917       -1.03647       -0.56295
C          5.53721       -2.82535       -0.74249
H          6.40252       -3.43973       -1.00394
C          1.97002        2.46478        0.70818
H          1.66510        2.24426        1.73168
C          2.45771        1.69753       -1.52120
O          2.56226        0.62752       -2.33458
C          2.81701        0.81266       -3.69635
H          2.04133        1.43658       -4.17347
H          2.80571       -0.18461       -4.15373
H          3.80511        1.27469       -3.86997
C          2.20874        3.78456        0.31646
H          2.09606        4.59767        1.03660
C          2.69484        3.01268       -1.92396
H          2.97085        3.23728       -2.95469
C          2.57876        4.05116       -0.99668
H          2.76582        5.07835       -1.31905
