78
Cat244.ts34.5.log	Energy: -3441390.4676945
C         -0.36887       -2.46853       -2.37912
H         -0.14589       -3.51940       -2.17309
H         -1.36825       -2.29677       -2.79164
C          0.68731       -1.60682       -2.75606
H          1.72088       -1.96925       -2.76489
H          0.49862       -0.85826       -3.53427
H          0.40110       -0.21622       -1.79260
Co         0.11806       -1.27992       -0.81659
C         -1.41747        1.69387       -0.91424
C         -3.18514       -0.53577       -1.36848
C         -2.39931        0.03451        1.21319
C          1.85373       -0.54318        2.00457
C          3.42360       -1.09289       -0.31088
C          2.11406        1.41152       -0.08087
P          1.79630       -0.38177        0.17748
P         -1.64109       -0.07296       -0.46688
C          0.03691       -2.67142        0.22045
O         -0.03180       -3.60418        0.89764
C         -1.15691        2.68103        0.04259
C         -1.35769        2.04474       -2.27154
C         -0.84669        4.33425       -1.69371
C         -1.09252        3.35559       -2.65718
C         -0.86727        3.98874       -0.34499
H         -1.18132        2.43053        1.10544
H         -0.64999        4.74232        0.41541
H         -0.61525        5.35894       -1.99296
H         -1.06665        3.61249       -3.71913
H         -1.52523        1.28159       -3.03702
C         -4.06450        0.36921       -1.97225
H         -3.83419        1.43665       -1.98307
C         -3.52328       -1.89568       -1.36311
H         -2.84745       -2.61384       -0.89079
C         -5.24682       -0.06849       -2.56487
H         -5.93003        0.63886       -3.03794
C         -4.70559       -2.34572       -1.94001
H         -4.96728       -3.40496       -1.92945
C         -5.56105       -1.42567       -2.54578
Cl        -7.02876       -1.97568       -3.28105
C         -3.43247        0.94085        1.49503
H         -3.78228        1.62866        0.72132
C         -1.99562       -0.85034        2.21402
H         -1.20236       -1.57071        2.01548
C         -4.02615        0.98261        2.75011
H         -4.82494        1.69244        2.97077
C         -2.58861       -0.82986        3.47539
H         -2.26376       -1.52144        4.25412
C         -3.59480        0.09421        3.73832
Cl        -4.32411        0.14590        5.30762
C          2.72412       -1.42849        2.64904
C          0.92663        0.17455        2.77284
C          1.75086       -0.86345        4.78977
C          0.88067        0.02338        4.15532
C          2.66811       -1.58950        4.03323
H          3.45255       -1.99781        2.06815
H          3.35106       -2.28816        4.52223
H          1.71125       -0.98950        5.87428
H          0.15031        0.59127        4.73657
H          0.22875        0.85716        2.28333
C          4.61509       -0.35990       -0.25746
H          4.59954        0.68625        0.05674
C          3.47155       -2.42782       -0.72694
H          2.54191       -3.00026       -0.78070
C          5.82854       -0.94593       -0.60377
H          6.75771       -0.37498       -0.56599
C          4.67962       -3.03117       -1.06523
H          4.71670       -4.07398       -1.38422
C          5.85367       -2.28217       -1.00389
Cl         7.36013       -3.01574       -1.43588
C          2.47741        2.29349        0.94258
H          2.58871        1.93052        1.96583
C          2.01172        1.90940       -1.38596
H          1.73253        1.23899       -2.20178
C          2.69150        3.64558        0.68114
H          2.95350        4.33509        1.48529
C          2.24211        3.24941       -1.66504
H          2.14631        3.63319       -2.68114
C          2.56075        4.11691       -0.62168
Cl         2.75678        5.80591       -0.95030
