98
Cat274.ts34.5.log	Energy: -2530344.7846501
C         -0.86460        0.13588       -3.70677
H         -0.62135       -0.67204       -4.40331
H         -1.92327        0.41611       -3.70802
C          0.11106        1.13719       -3.45466
H          1.11385        1.05092       -3.88743
H         -0.21771        2.18207       -3.39427
H         -0.03166        1.31162       -1.78188
Co        -0.06570       -0.15230       -1.88483
C         -1.69020        1.60393        0.42631
C         -3.45835        0.12792       -1.28992
C         -2.09121       -1.25248        0.70913
C          1.67322       -1.26201        0.77225
C          3.27600       -0.34378       -1.39070
C          2.00770        1.56341        0.29611
P          1.65180       -0.02068       -0.57744
P         -1.77255        0.05272       -0.55146
C          0.17427       -1.82481       -2.28042
O          0.31550       -2.93859       -2.55996
C         -1.79559        2.82450       -0.26632
H         -2.07482        2.82294       -1.32404
C         -1.32591        1.65555        1.77057
H         -1.25251        0.73262        2.34714
C         -1.53565        4.03245        0.35675
H         -1.61388        4.97849       -0.18255
C         -1.03571        2.86389        2.40790
H         -0.72748        2.84953        3.45316
C         -1.12446        4.06142        1.69809
O         -0.82789        5.27451        2.20995
C         -0.46037        5.35388        3.55869
H          0.45523        4.77389        3.76858
H         -0.26717        6.41296        3.77208
H         -1.26694        4.99648        4.22316
C         -3.76828       -0.82516       -2.26952
H         -2.99737       -1.53229       -2.58872
C         -4.45555        1.02293       -0.89423
H         -4.24517        1.77068       -0.12593
C         -5.03890       -0.88203       -2.82907
H         -5.25883       -1.63971       -3.58683
C         -5.72523        0.96828       -1.46796
H         -6.49083        1.67895       -1.14327
C         -6.04102        0.01920       -2.44425
C         -7.39990       -0.02641       -3.07940
H         -8.13293        0.56005       -2.50755
H         -7.37204        0.38383       -4.10263
H         -7.77265       -1.05918       -3.15629
C         -2.97004       -1.06798        1.78362
H         -3.50998       -0.12378        1.89167
C         -1.46855       -2.49541        0.56946
H         -0.79292       -2.67059       -0.26657
C         -3.15894       -2.07492        2.72653
H         -3.83025       -1.90103        3.57244
C         -1.68587       -3.50897        1.49559
H         -1.17709       -4.46788        1.36514
C         -2.50710       -3.30864        2.60898
C         -2.64443       -4.37655        3.65323
H         -2.90734       -5.34680        3.20371
H         -1.68653       -4.51112        4.18238
H         -3.41324       -4.12477        4.39717
C          1.06929       -1.01055        2.01421
H          0.69273       -0.01210        2.23724
C          2.13235       -2.55634        0.51894
H          2.60336       -2.78826       -0.43962
C          0.93118       -2.00839        2.96402
H          0.44699       -1.81497        3.92279
C          1.98720       -3.57606        1.46040
H          2.34807       -4.57561        1.21707
C          1.37311       -3.30785        2.68793
O          1.14798       -4.23218        3.64673
C          1.54853       -5.55289        3.41312
H          2.64004       -5.63162        3.26550
H          1.26878       -6.13000        4.30366
H          1.04112       -5.98667        2.53301
C          3.30680       -0.65675       -2.74923
H          2.36239       -0.70308       -3.29594
C          4.48787       -0.29377       -0.68813
H          4.49285       -0.05162        0.37686
C          4.51623       -0.91809       -3.39358
H          4.51533       -1.16597       -4.45868
C          5.68946       -0.55423       -1.33297
H          6.62396       -0.51323       -0.76565
C          5.72701       -0.87024       -2.70003
C          7.03453       -1.13758       -3.38578
H          7.61179       -1.91250       -2.85753
H          6.88602       -1.47118       -4.42220
H          7.66061       -0.23083       -3.41091
C          2.68823        1.63525        1.51856
H          2.99466        0.72072        2.03046
C          1.63663        2.76521       -0.31547
H          1.10015        2.74046       -1.26520
C          2.96835        2.86532        2.10948
H          3.49129        2.88988        3.06999
C          1.92630        3.99074        0.27213
H          1.60733        4.91078       -0.22479
C          2.59399        4.06664        1.49842
C          2.90927        5.39757        2.11520
H          2.07297        6.10021        1.98399
H          3.12426        5.30809        3.18988
H          3.79455        5.85163        1.63960
