78
Cat239.ts34.5.log	Energy: -2193146.9343521
C          0.96158       -2.64814       -1.99681
H          0.73760       -2.58054       -3.06497
H          2.02839       -2.68375       -1.75852
C          0.03458       -3.29006       -1.14494
H         -0.90600       -3.66445       -1.55854
H          0.41508       -3.90130       -0.31964
H         -0.15933       -2.19039        0.17802
Co        -0.04525       -1.24275       -0.94958
C          1.69942        1.42607        0.15760
O          1.89261       -0.92033        1.54043
O          3.16640       -0.74012       -0.58980
C         -2.41185        1.14622       -0.44797
O         -3.03664       -1.24368        0.37556
O         -1.18137       -0.00311        1.64950
P         -1.63575       -0.40428        0.12558
P          1.64690       -0.40509        0.00450
C         -0.35640       -0.35450       -2.41428
O         -0.49506        0.26972       -3.37537
C          1.60811        2.21402       -1.00009
C          1.66839        2.05861        1.40380
C          1.52989        4.22351        0.33767
C          1.58145        3.44756        1.49443
C          1.54223        3.60173       -0.91156
H          1.55173        1.74214       -1.98384
H          1.47478        4.19919       -1.82366
H          1.46406        5.31191        0.40869
H          1.54628        3.92484        2.47693
H          1.67592        1.45225        2.30854
C          3.12312       -0.85034        2.26391
H          3.71813        0.00265        1.88922
C          3.90587       -2.13445        2.05746
H          4.13120       -2.27553        0.99327
H          3.31416       -2.99341        2.41015
H          4.85062       -2.10846        2.62198
C          2.77309       -0.63164        3.72337
H          2.22488        0.30889        3.87648
H          2.13565       -1.45432        4.08103
H          3.68435       -0.60215        4.33911
C          3.93004       -0.01201       -1.54002
H          3.82558        1.06748       -1.32904
C          3.46148       -0.28968       -2.95749
H          2.39728       -0.04869       -3.08957
H          3.59514       -1.35334       -3.20584
H          4.04100        0.30926       -3.67621
C          5.37864       -0.40192       -1.32190
H          5.68754       -0.17984       -0.29024
H          5.51514       -1.47993       -1.49911
H          6.03650        0.14965       -2.00998
C         -3.61603        1.13775       -1.15885
C         -1.73413        2.35680       -0.26127
C         -3.45584        3.52651       -1.48524
C         -2.25552        3.54085       -0.77562
C         -4.13472        2.32352       -1.67519
H         -4.14909        0.19551       -1.29522
H         -5.07702        2.30808       -2.22836
H         -3.86347        4.45524       -1.89209
H         -1.71493        4.47793       -0.62220
H         -0.79234        2.37207        0.28896
C         -3.18103       -2.63482        0.08984
H         -2.22648       -3.14242        0.31043
C         -3.51381       -2.81890       -1.37788
H         -2.72359       -2.36708       -1.99585
H         -4.47219       -2.33310       -1.61956
H         -3.59473       -3.88655       -1.63289
C         -4.25689       -3.17292        1.00971
H         -3.96988       -3.05869        2.06457
H         -5.20163       -2.63120        0.84952
H         -4.43055       -4.24135        0.81325
C         -2.09673        0.48543        2.63477
H         -3.02675        0.80751        2.13219
C         -1.45821        1.67780        3.31651
H         -1.24710        2.47841        2.59472
H         -0.51011        1.37874        3.78977
H         -2.12439        2.07720        4.09586
C         -2.41169       -0.63922        3.60113
H         -2.88294       -1.47502        3.06842
H         -1.48445       -1.00171        4.07093
H         -3.09732       -0.29748        4.39131
