98
Cat283.ts34.5.log	Energy: -2530346.4368888
C          0.95850       -2.73062       -2.37634
H          0.88264       -2.65718       -3.46513
H          1.96328       -2.99675       -2.02930
C         -0.16764       -3.19192       -1.64253
H         -1.11302       -3.36948       -2.16587
H         -0.01953       -3.90369       -0.82159
H         -0.17218       -2.16600       -0.36486
Co         0.08744       -1.17982       -1.43908
C          1.23258       -0.46342        1.65665
C          3.28233       -1.33883       -0.10515
C          2.20115        1.33052       -0.34485
C         -1.95492        1.38536       -0.39290
C         -3.13382       -0.60546       -2.07935
C         -2.60802       -1.14805        0.73428
P         -1.80063       -0.40467       -0.77209
P          1.65270       -0.44521       -0.13165
C          0.14950       -0.26559       -2.90571
O          0.23052        0.34394       -3.88770
C          1.75731       -1.38783        2.57200
H          2.50809       -2.11429        2.25676
C          0.26570        0.43141        2.12777
H         -0.17858        1.16341        1.44864
C          1.33314       -1.41566        3.89457
H          1.74138       -2.13757        4.60449
C         -0.16709        0.42190        3.45239
H         -0.91984        1.14532        3.76741
C          0.36597       -0.51144        4.35093
O          0.01385       -0.60974        5.64716
C         -0.96746        0.25552        6.14551
H         -1.93046        0.13019        5.61939
H         -1.10579       -0.00081        7.20342
H         -0.65893        1.31345        6.07262
H          3.03349       -2.41328       -0.04119
H          3.80927       -1.07225        0.82371
C          4.20645       -1.08712       -1.26823
C          5.59007       -1.11562       -1.04938
H          5.96637       -1.31362       -0.04212
C          3.74775       -0.80596       -2.56009
H          2.67441       -0.78216       -2.75139
C          6.48781       -0.86617       -2.08306
H          7.56225       -0.88824       -1.88443
C          4.64427       -0.54652       -3.59613
H          4.25908       -0.31948       -4.59326
C          6.01758       -0.57417       -3.36351
H          6.71949       -0.36897       -4.17539
H          1.32938        1.93443       -0.05027
H          2.32385        1.47067       -1.42916
C          3.43816        1.75588        0.38704
C          4.64157        1.93558       -0.30747
H          4.66494        1.77435       -1.38813
C          3.43542        1.96984        1.77370
H          2.50806        1.84869        2.33643
C          5.80821        2.30231        0.35970
H          6.73410        2.43066       -0.20631
C          4.60191        2.33361        2.44229
H          4.57614        2.49330        3.52319
C          5.79521        2.49788        1.73928
H          6.70974        2.78330        2.26492
C         -2.86315        1.91005        0.54239
H         -3.54640        1.25151        1.08074
C         -1.13367        2.28592       -1.07619
H         -0.42223        1.91213       -1.81451
C         -2.92500        3.27073        0.79814
H         -3.62799        3.67929        1.52645
C         -1.19539        3.65957       -0.84390
H         -0.53399        4.32240       -1.40210
C         -2.08968        4.16150        0.10848
O         -2.21622        5.46309        0.42220
C         -1.39975        6.39793       -0.22865
H         -1.57328        6.40513       -1.31900
H         -1.66257        7.38214        0.17881
H         -0.32861        6.20746       -0.04054
H         -3.21772       -1.69085       -2.24514
H         -2.67965       -0.18160       -2.98755
C         -4.45541        0.02736       -1.78656
C         -4.66543        1.38623       -2.06376
H         -3.86488        1.96496       -2.53107
C         -5.49964       -0.69124       -1.18891
H         -5.37306       -1.75757       -0.98534
C         -5.86914        2.00642       -1.74287
H         -6.00687        3.06686       -1.96730
C         -6.70570       -0.07267       -0.86291
H         -7.50542       -0.65590       -0.39987
C         -6.89346        1.28106       -1.13472
H         -7.83817        1.76778       -0.88118
H         -3.68454       -0.91954        0.69408
H         -2.18038       -0.60766        1.59080
C         -2.37139       -2.61628        0.90510
C         -1.35556       -3.06291        1.75973
H         -0.76315       -2.33249        2.31385
C         -3.12028       -3.57204        0.20871
H         -3.92349       -3.24971       -0.45775
C         -1.08712       -4.42191        1.90266
H         -0.28828       -4.74479        2.57489
C         -2.85500       -4.93271        0.34993
H         -3.45086       -5.66124       -0.20520
C         -1.83350       -5.36363        1.19488
H         -1.62352       -6.43013        1.30470
