90
Cat210.ts34.5.log	Energy: -2197694.2364819
C         -0.91703       -0.03714       -3.30984
H         -0.55175       -0.79373       -4.00950
H         -2.00669        0.02026       -3.23567
C         -0.13803        1.13685       -3.11449
H          0.85221        1.20682       -3.57740
H         -0.65254        2.10475       -3.07288
H         -0.20280        1.33222       -1.50000
Co        -0.00541       -0.13723       -1.51875
C         -2.06784        1.03414        0.95275
O         -3.13356       -0.43978       -1.11036
O         -1.84065       -1.57270        0.81799
C          2.07476       -0.75193        1.11817
O          3.05844        0.33865       -1.24626
O          1.76975        1.75956        0.47978
P          1.68077        0.32464       -0.33693
P         -1.71484       -0.31923       -0.26222
C          0.56021       -1.69746       -2.01346
O          0.88648       -2.73572       -2.40202
H         -1.05046        1.27489        1.32058
C         -2.92069        0.67910        2.16958
H         -2.48092       -0.18238        2.69089
H         -3.92479        0.35958        1.84339
C         -3.05748        1.87517        3.10705
H         -3.69438        1.61127        3.96723
H         -2.06309        2.12296        3.52223
C         -3.61519        3.09669        2.38512
H         -3.68436        3.95479        3.07340
H         -4.64764        2.88111        2.05390
C         -2.76545        3.45569        1.17116
H         -1.76783        3.78179        1.51371
H         -3.20424        4.31109        0.63188
C         -2.61085        2.26774        0.22791
H         -3.58719        2.01863       -0.21603
H         -1.95997        2.52873       -0.62342
C         -4.35390       -1.05825       -0.70735
H         -4.19235       -1.56244        0.26108
C         -4.71339       -2.09336       -1.75804
H         -3.91267       -2.83540       -1.86823
H         -4.86144       -1.60413       -2.73319
H         -5.64208       -2.61901       -1.48842
C         -5.44873       -0.01550       -0.56895
H         -5.22928        0.70764        0.22777
H         -5.56367        0.53804       -1.51360
H         -6.40922       -0.49792       -0.33231
C         -1.10586       -2.78605        0.69797
H         -0.07954       -2.53217        0.38423
C         -1.71182       -3.70226       -0.34522
H         -1.73702       -3.20954       -1.32725
H         -2.73778       -3.98696       -0.06427
H         -1.11063       -4.61792       -0.44673
C         -1.07068       -3.40613        2.07929
H         -0.61397       -2.71490        2.80281
H         -2.09150       -3.63517        2.42222
H         -0.48843       -4.33934        2.07190
H          1.06491       -0.92416        1.53969
C          2.92646       -0.12196        2.22213
H          2.46970        0.82163        2.54963
H          3.92170        0.14003        1.82517
C          3.09482       -1.07994        3.39730
H          3.72793       -0.61671        4.17171
H          2.10820       -1.25224        3.86553
C          3.67826       -2.41685        2.95650
H          3.77110       -3.10073        3.81582
H          4.70348       -2.25712        2.57488
C          2.82764       -3.04871        1.86177
H          1.83901       -3.30931        2.27869
H          3.27773       -3.99364        1.51689
C          2.63756       -2.10625        0.67758
H          3.60317       -1.94672        0.17307
H          1.98772       -2.57613       -0.07452
C          4.28996        1.01268       -0.98271
H          4.14098        1.70402       -0.13501
C          4.64582        1.80629       -2.22676
H          3.85133        2.51889       -2.48185
H          4.77867        1.12397       -3.08022
H          5.58191        2.36584       -2.07901
C          5.38034        0.01183       -0.64538
H          5.17049       -0.52802        0.28708
H          5.47742       -0.72652       -1.45582
H          6.34619        0.52605       -0.52736
C          1.08991        2.96263        0.14814
H          0.04720        2.70767       -0.10853
C          1.72154        3.65343       -1.04341
H          1.70538        2.99937       -1.92640
H          2.76562        3.92753       -0.82764
H          1.16806        4.57210       -1.28962
C          1.10238        3.81707        1.39895
H          0.62661        3.28452        2.23516
H          2.13746        4.05565        1.68819
H          0.56097        4.75973        1.23186
