102
Cat216.ts34.5.log	Energy: -2391258.6972783
C         -0.54552        0.41951       -3.48655
H         -0.35789       -0.36276       -4.22804
H         -1.52575        0.89740       -3.59253
C          0.54483        1.23623       -3.06318
H          1.56271        0.99994       -3.39328
H          0.38179        2.32087       -2.99805
H          0.23287        1.34545       -1.48928
Co         0.02772       -0.10948       -1.63412
C         -2.17085        1.71741        0.28800
C         -3.32324       -0.67296       -0.93232
C         -1.51336       -0.97435        1.18686
C          2.06989       -1.35634        0.99709
C          3.30933        0.21375       -1.06857
C          1.56425        1.49920        0.81179
P          1.68790       -0.00978       -0.23407
P         -1.72138        0.02209       -0.34398
C          0.03941       -1.77664       -2.12120
O         -0.05326       -2.87300       -2.47924
H         -1.27214        1.99610        0.87184
C         -3.40503        1.85076        1.17770
H         -3.37502        1.14006        2.01707
H         -4.30057        1.59415        0.58640
C         -3.54189        3.27872        1.70139
H         -4.43506        3.36302        2.34204
H         -2.67259        3.51220        2.34383
C         -3.61026        4.28471        0.55819
H         -3.66454        5.31365        0.95056
H         -4.54397        4.11888       -0.00916
C         -2.42072        4.13424       -0.38300
H         -1.49513        4.41969        0.14890
H         -2.51606        4.82349       -1.23802
C         -2.26862        2.70056       -0.87997
H         -3.13560        2.42734       -1.50944
H         -1.37727        2.61036       -1.51776
C         -3.51889       -0.89317       -2.29699
H         -2.70444       -0.67308       -2.98731
C         -4.35795       -1.02375       -0.05067
H         -4.21680       -0.90953        1.02621
C         -4.72184       -1.41421       -2.77301
H         -4.84722       -1.57994       -3.84669
C         -5.55349       -1.54520       -0.52872
H         -6.34291       -1.81469        0.17924
C         -5.76213       -1.74340       -1.90144
C         -7.06116       -2.30086       -2.40471
H         -7.30729       -3.25210       -1.90720
H         -7.89416       -1.60767       -2.20380
H         -7.02972       -2.48262       -3.48802
C         -1.30029       -0.44376        2.46123
H         -1.34124        0.63348        2.62288
C         -1.45356       -2.37065        1.03936
H         -1.61867       -2.81505        0.05393
C         -1.00795       -1.27550        3.54505
H         -0.83579       -0.83029        4.52948
C         -1.17860       -3.19375        2.12189
H         -1.14096       -4.27689        1.97450
C         -0.93297       -2.66146        3.39755
C         -0.57908       -3.55776        4.54703
H         -1.27851       -4.40393        4.62840
H          0.42925       -3.98540        4.41569
H         -0.58767       -3.01398        5.50209
H          1.19191       -1.35733        1.66857
C          3.33834       -1.12579        1.82043
H          3.32496       -0.13972        2.30870
H          4.20683       -1.11986        1.13994
C          3.52758       -2.22853        2.85777
H          4.44296       -2.04129        3.44276
H          2.68629       -2.20310        3.57487
C          3.58675       -3.59874        2.19424
H          3.69066       -4.39316        2.95161
H          4.49079       -3.65168        1.56088
C          2.35319       -3.84134        1.33425
H          1.46499       -3.90602        1.98661
H          2.42812       -4.80914        0.81237
C          2.12562       -2.72566        0.31847
H          2.94298       -2.72978       -0.42544
H          1.19678       -2.91538       -0.23420
C          3.53381       -0.48562       -2.26007
H          2.72372       -1.09131       -2.67639
C          4.34079        1.01258       -0.56134
H          4.18989        1.57285        0.36443
C          4.76101       -0.40647       -2.91187
H          4.91580       -0.96987       -3.83647
C          5.56074        1.10090       -1.22627
H          6.35269        1.73205       -0.81270
C          5.79524        0.39298       -2.41120
C          7.10052        0.51577       -3.14106
H          7.92804        0.74284       -2.45344
H          7.34729       -0.40817       -3.68402
H          7.05986        1.32985       -3.88427
C          1.25910        1.47039        2.17417
H          1.22511        0.52219        2.71024
C          1.60597        2.75297        0.17934
H          1.85823        2.81363       -0.88247
C          0.96068        2.64443        2.86894
H          0.71008        2.58601        3.93209
C          1.32055        3.91933        0.87557
H          1.35783        4.87889        0.35195
C          0.96949        3.88723        2.23368
C          0.59304        5.14449        2.95971
H          1.29290        5.96422        2.73740
H         -0.41090        5.48525        2.65496
H          0.57556        4.99392        4.04822
