94
Cat242.ts34.5.log	Energy: -2575372.7391036
C         -0.34381       -3.12411       -1.39635
H         -0.11337       -4.03815       -0.84093
H         -1.34135       -3.11478       -1.84753
C          0.70935       -2.43546       -2.04530
H          1.74567       -2.77091       -1.92814
H          0.51856       -2.00505       -3.03556
H          0.41330       -0.80639       -1.62189
Co         0.12877       -1.46915       -0.33969
C         -1.39888        1.28116       -1.47179
C         -3.16536       -0.96427       -1.15336
C         -2.39479        0.47079        1.09200
C          1.83243        0.23976        2.04116
C          3.42708       -1.12330        0.11134
C          2.14298        1.30326       -0.60221
P          1.80712       -0.27208        0.27755
P         -1.63819       -0.21957       -0.43863
C          0.04599       -2.40631        1.11858
O         -0.02589       -3.04352        2.08038
C         -1.14007        2.53781       -0.91436
C         -1.32900        1.14158       -2.86627
C         -0.80316        3.48646       -3.11236
C         -1.05101        2.23609       -3.67943
C         -0.83802        3.62923       -1.72787
H         -1.17799        2.66887        0.16930
H         -0.62546        4.59873       -1.27099
H         -0.56238        4.34201       -3.74747
H         -1.01488        2.10923       -4.76439
H         -1.49914        0.16125       -3.32052
C         -4.05121       -0.31600       -2.02648
H         -3.82490        0.68871       -2.39037
C         -3.50618       -2.24361       -0.70525
H         -2.83281       -2.76296       -0.01778
C         -5.22433       -0.92990       -2.44132
H         -5.91489       -0.43105       -3.12421
C         -4.68626       -2.86869       -1.10328
H         -4.91410       -3.86569       -0.72546
C         -5.55391       -2.21271       -1.98399
O         -6.71231       -2.73066       -2.43950
C         -7.09450       -4.00653       -2.01006
H         -7.22910       -4.04915       -0.91463
H         -8.05459       -4.22763       -2.49362
H         -6.36093       -4.77749       -2.30582
C         -1.98381        0.01663        2.35023
H         -1.17665       -0.71199        2.42566
C         -3.44469        1.39458        1.03711
H         -3.80370        1.75186        0.06855
C         -2.58747        0.47682        3.51251
H         -2.26352        0.12535        4.49371
C         -4.05385        1.87498        2.19261
H         -4.86575        2.59758        2.10647
C         -3.62327        1.41521        3.44544
O         -4.14602        1.81760        4.62087
C         -5.19776        2.74056        4.61268
H         -6.08266        2.35191        4.07827
H         -5.46810        2.91967        5.66116
H         -4.90084        3.70007        4.15293
C          2.66260       -0.38123        2.98036
C          0.92277        1.21096        2.48079
C          1.68754        0.94186        4.75445
C          0.85616        1.56637        3.82449
C          2.58629       -0.03404        4.32888
H          3.37572       -1.14171        2.65533
H          3.23832       -0.53115        5.05123
H          1.63076        1.21363        5.81128
H          0.13693        2.32269        4.14743
H          0.25350        1.68951        1.76277
C          4.63766       -0.42832       -0.03855
H          4.63270        0.66266       -0.09820
C          3.46826       -2.51700        0.16925
H          2.52970       -3.06708        0.27675
C          5.84259       -1.10730       -0.11745
H          6.78861       -0.57592       -0.23815
C          4.67426       -3.21479        0.10088
H          4.66386       -4.30365        0.15393
C          5.87303       -2.50857       -0.04592
O          7.08833       -3.08204       -0.13202
C          7.18244       -4.47751       -0.06904
H          6.63450       -4.96397       -0.89527
H          8.24788       -4.72554       -0.15583
H          6.80119       -4.87236        0.88927
C          2.04253        1.31154       -2.00296
H          1.73535        0.40401       -2.52739
C          2.54161        2.48173        0.03039
H          2.65244        2.50803        1.11604
C          2.31462        2.45159       -2.73599
H          2.22350        2.46188       -3.82306
C          2.80048        3.64701       -0.69466
H          3.09375        4.55016       -0.15888
C          2.67812        3.63915       -2.08632
O          2.87540        4.71296       -2.87750
C          3.22594        5.93025       -2.28336
H          4.18633        5.86330       -1.74213
H          3.32802        6.66085       -3.09589
H          2.44958        6.28325       -1.58118
