74
Cat236.ts34.5.log	Energy: -2004388.3914392
C         -0.76905       -3.19639       -1.36237
H         -0.33406       -4.12709       -0.98640
H         -1.86209       -3.22636       -1.42084
C         -0.05208       -2.46166       -2.34787
H          0.94128       -2.79969       -2.66179
H         -0.61475       -2.03546       -3.18831
H         -0.21703       -0.88182       -1.79995
Co         0.05264       -1.56481       -0.52522
C         -1.76171        1.22778       -0.70770
C         -3.33954       -1.14926       -0.34479
C         -1.80443        0.08380        1.95240
C          1.64660        0.81657        1.19145
C          3.37643       -0.96566       -0.22912
C          1.78723        1.19794       -1.67918
P          1.69558       -0.14395       -0.38164
P         -1.68616       -0.40447        0.14861
C          0.67928       -2.59158        0.71512
O          1.10650       -3.30009        1.52736
C         -1.58117        2.46483       -0.07881
C         -1.90100        1.21909       -2.10640
C         -1.65311        3.61920       -2.20524
C         -1.85515        2.39499       -2.84643
C         -1.51921        3.64693       -0.82049
H         -1.46476        2.52121        1.00315
H         -1.36510        4.59771       -0.30358
H         -1.60434        4.54427       -2.78430
H         -1.96586        2.35595       -3.93288
H         -2.02967        0.26701       -2.62886
H         -3.10375       -1.51433       -1.36071
C         -3.64378       -2.37201        0.51530
H         -4.42588       -2.98819        0.04351
H         -2.75269       -3.00026        0.66027
H         -4.01671       -2.07603        1.50744
C         -4.54438       -0.22352       -0.46035
H         -4.33122        0.66460       -1.07171
H         -5.38009       -0.76349       -0.93605
H         -4.89660        0.12051        0.52111
H         -0.95808        0.78830        2.03346
C         -3.07983        0.79788        2.38993
H         -2.93092        1.25255        3.38323
H         -3.39038        1.59416        1.69953
H         -3.91698        0.09007        2.48347
C         -1.48812       -1.07298        2.89447
H         -0.56369       -1.59179        2.61643
H         -1.36342       -0.68815        3.91936
H         -2.29662       -1.81798        2.91685
C          1.81027        0.11466        2.39744
C          1.34922        2.18321        1.26216
C          1.36526        2.11355        3.68025
C          1.20555        2.82387        2.49375
C          1.67625        0.75427        3.62543
H          2.02548       -0.95584        2.38334
H          1.80435        0.18203        4.54733
H          1.25131        2.61521        4.64401
H          0.96577        3.88997        2.52017
H          1.20644        2.76526        0.35220
H          3.16369       -1.68515        0.58054
C          3.68893       -1.78806       -1.47269
H          4.53944       -2.46170       -1.28309
H          2.82258       -2.39989       -1.76083
H          3.96112       -1.14772       -2.32603
C          4.55684       -0.11081        0.21477
H          4.30195        0.54324        1.06133
H          5.38332       -0.76514        0.53724
H          4.94168        0.51821       -0.59892
H          0.87628        1.77783       -1.44539
C          2.99811        2.12425       -1.60732
H          2.80281        3.03549       -2.19573
H          3.25272        2.43233       -0.58446
H          3.88568        1.64311       -2.04358
C          1.61037        0.67395       -3.10037
H          0.69660        0.07727       -3.20768
H          1.54029        1.52486       -3.79651
H          2.46056        0.05280       -3.41924
