98
Cat257.ts34.5.log	Energy: -2201600.2689834
C          0.60537        3.28036       -1.12372
H          0.64666        4.14450       -0.45405
H          1.49448        3.18132       -1.75701
C         -0.65847        2.89715       -1.66125
H         -1.56448        3.41719       -1.33293
H         -0.71392        2.62473       -2.72267
H         -0.56189        1.24505       -1.52770
Co        -0.02910        1.62091       -0.20212
C          1.11995       -1.16500       -1.69365
C          3.10113        0.87856       -1.42779
C          2.29867       -0.62311        0.88418
C         -1.11560       -0.96608        1.67508
C         -3.05207        1.07701        1.32599
C         -2.40388       -0.65548       -0.89560
P         -1.61219        0.31540        0.45222
P          1.58534        0.22932       -0.58702
C          0.26404        2.32834        1.35318
O          0.50232        2.77683        2.39366
C          0.99135       -2.49012       -1.26016
C          0.72935       -0.85789       -3.00699
C          0.07931       -3.15076       -3.40200
C          0.22245       -1.83718       -3.85471
C          0.46816       -3.47187       -2.10414
H          1.27849       -2.76612       -0.24492
H          0.36567       -4.49726       -1.73942
H         -0.33267       -3.91867       -4.06083
H         -0.07666       -1.57289       -4.87207
H          0.79622        0.17477       -3.36166
H          2.76524        1.34263       -2.37073
H          3.75654        0.03728       -1.70191
C          3.82031        1.90910       -0.56678
H          3.07068        2.58999       -0.13000
H          4.30409        1.40545        0.28947
C          4.87368        2.73702       -1.30550
H          4.36283        3.23874       -2.14967
C          5.43278        3.81908       -0.38945
H          4.63237        4.46575        0.00221
H          6.15816        4.45843       -0.91628
H          5.95075        3.37076        0.47502
C          5.99125        1.87331       -1.87923
H          6.74329        2.48777       -2.39828
H          5.61359        1.13336       -2.60082
H          6.50924        1.32254       -1.07553
H          1.47240       -1.21258        1.31239
H          2.47314        0.18100        1.61645
C          3.54053       -1.48530        0.69465
H          3.47741       -2.04172       -0.25564
H          4.43328       -0.84157        0.60192
C          3.76942       -2.49011        1.82753
H          2.87853       -3.14709        1.86350
C          4.98487       -3.36048        1.53315
H          4.88608       -3.87648        0.56512
H          5.13074       -4.12641        2.31080
H          5.90276       -2.75033        1.49207
C          3.89211       -1.81071        3.18658
H          4.07282       -2.54911        3.98336
H          2.97954       -1.25604        3.45060
H          4.73546       -1.09930        3.19473
C         -0.67014       -0.54575        2.93828
C         -1.04111       -2.32943        1.36413
C         -0.07731       -2.81283        3.52915
C         -0.52225       -3.24388        2.28171
C         -0.16102       -1.45880        3.85691
H         -0.68800        0.51485        3.19995
H          0.18679       -1.10776        4.83142
H          0.33422       -3.52812        4.24502
H         -0.46519       -4.30225        2.01477
H         -1.36766       -2.69035        0.38827
H         -2.66165        1.47919        2.27544
H         -3.77123        0.28354        1.58340
C         -3.68618        2.19577        0.51594
H         -2.89351        2.92138        0.27238
H         -4.04602        1.80487       -0.45445
C         -4.84194        2.91973        1.20899
H         -4.46718        3.27854        2.18624
C         -5.26430        4.13651        0.39375
H         -4.41974        4.82432        0.23252
H         -6.06795        4.69870        0.89417
H         -5.63944        3.83183       -0.59782
C         -6.02960        1.99947        1.46904
H         -6.85287        2.54124        1.95997
H         -5.76335        1.14962        2.11529
H         -6.41980        1.59018        0.52143
H         -1.60290       -1.29876       -1.29782
H         -2.59657        0.07925       -1.69244
C         -3.65535       -1.45903       -0.56801
H         -3.57103       -1.90795        0.43603
H         -4.52827       -0.78341       -0.51950
C         -3.94521       -2.57720       -1.57348
H         -3.07595       -3.26317       -1.55485
C         -5.17778       -3.36777       -1.15257
H         -5.06884       -3.77160       -0.13374
H         -5.36596       -4.21321       -1.83245
H         -6.07589       -2.72770       -1.16206
C         -4.08376       -2.05322       -2.99838
H         -4.31494       -2.87053       -3.69908
H         -3.15969       -1.56992       -3.34918
H         -4.90089       -1.31494       -3.06728
