90
Cat203.ts34.5.log	Energy: -2588201.0961270
C          0.82444       -4.00952        1.31154
H          0.70413       -4.90114        0.69005
H          1.80957       -3.94347        1.78758
C         -0.30732       -3.52534        2.03627
H         -1.28357       -3.99975        1.87947
H         -0.16864       -3.23356        3.08509
H         -0.16840       -1.93877        1.82465
Co         0.12855       -2.35427        0.42983
O          2.61444       -0.32832        1.44842
C          3.45369       -2.30974       -0.06932
C          2.03860       -0.08398       -1.23697
O         -1.30577       -0.05649       -1.24040
C         -3.01926       -2.17065       -0.39287
C         -2.16707       -0.01680        1.40754
P         -1.53388       -1.09756        0.02006
P          1.95871       -1.25021        0.22790
C          0.02363       -3.15444       -1.10702
O         -0.01343       -3.65589       -2.14709
C          1.82762        0.16041        2.52466
H          0.76751        0.16367        2.20915
C          2.26658        1.57874        2.82211
H          2.14409        2.21516        1.93563
H          3.32851        1.59746        3.11081
H          1.67510        2.00185        3.64843
C          1.97325       -0.77217        3.71236
H          1.66320       -1.79095        3.43799
H          3.02365       -0.80849        4.04108
H          1.35674       -0.43675        4.56040
H          3.52947       -2.95240        0.82072
H          3.18304       -2.96618       -0.91125
C          4.73641       -1.58548       -0.32923
C          5.24323       -1.46076       -1.62929
H          4.72061       -1.94459       -2.45914
C          5.44443       -0.97356        0.71544
H          5.05821       -1.04730        1.73261
C          6.40594       -0.73806       -1.89206
H          6.80340       -0.63907       -2.90362
C          6.60779       -0.25118        0.47227
H          7.16149        0.22989        1.28063
C          7.07330       -0.13747       -0.83321
F          8.18740        0.55508       -1.07060
H          2.82113       -0.45120       -1.91718
H          1.06559       -0.18877       -1.73469
C          2.28976        1.34872       -0.88605
C          1.21612        2.22463       -0.69242
H          0.19926        1.84526       -0.80390
C          3.58992        1.84457       -0.72355
H          4.44252        1.17607       -0.85642
C          1.42507        3.56320       -0.36361
H          0.59155        4.25441       -0.22804
C          3.81552        3.17671       -0.39120
H          4.82625        3.56954       -0.26644
C          2.72663        4.02350       -0.21772
F          2.93673        5.30419        0.09423
C         -2.26712        0.41861       -2.18983
H         -3.27188        0.34345       -1.74662
C         -2.18073       -0.43706       -3.44024
H         -2.34676       -1.50140       -3.22100
H         -1.18041       -0.34578       -3.88992
H         -2.92456       -0.11604       -4.18529
C         -1.97939        1.87681       -2.47557
H         -2.04724        2.47618       -1.55848
H         -0.97241        1.99783       -2.90248
H         -2.70981        2.27021       -3.19817
H         -2.79397       -2.59349       -1.38392
H         -2.85957       -2.99892        0.31488
C         -4.43792       -1.69869       -0.29721
C         -5.10919       -1.72322        0.93404
H         -4.60255       -2.12456        1.81593
C         -5.14966       -1.24421       -1.41619
H         -4.67675       -1.26242       -2.40016
C         -6.41573       -1.25951        1.06480
H         -6.93559       -1.27429        2.02423
C         -6.45595       -0.77637       -1.30719
H         -7.00982       -0.42040       -2.17769
C         -7.07106       -0.77636       -0.06065
F         -8.31795       -0.32608        0.05168
H         -2.97214       -0.57957        1.90326
H         -1.33238        0.03076        2.11976
C         -2.61465        1.37345        1.06946
C         -1.73585        2.44958        1.24787
H         -0.72735        2.26619        1.62681
C         -3.90423        1.64658        0.59384
H         -4.61730        0.83172        0.46116
C         -2.12068        3.75655        0.95810
H         -1.44390        4.59934        1.10942
C         -4.30291        2.94566        0.29255
H         -5.30739        3.16150       -0.07572
C         -3.40306        3.98842        0.47740
F         -3.78051        5.23424        0.19746
