82
Cat253.ts34.5.log	Energy: -3630143.8236455
C         -0.45136        0.96681        3.69450
H         -1.52934        1.15308        3.69882
H         -0.08167        0.38092        4.53988
C          0.41467        1.90147        3.08249
H          0.00741        2.86195        2.74629
H          1.45681        1.97622        3.40766
H          0.23209        1.60483        1.44253
Co         0.20731        0.20983        1.93610
C          2.79494        1.67669        0.40596
O          3.03818       -0.91730        1.17052
O          1.66790       -0.26134       -0.92967
C         -2.35181       -1.56719        0.40331
O         -2.88423        0.78222        1.62743
O         -1.71977        0.70348       -0.66136
P         -1.59040        0.01520        0.86720
P          1.86073        0.14946        0.68370
C          0.52457       -1.30646        2.72391
O          0.74436       -2.30938        3.24285
C          2.42336        2.56672       -0.60619
C          3.79651        2.03374        1.31641
C          4.05605        4.15604        0.19334
C          4.42979        3.26851        1.20260
C          3.05231        3.80565       -0.70881
H          1.63742        2.29041       -1.31095
H          2.74546        4.50397       -1.49091
H          4.54886        5.12770        0.11112
H          5.21947        3.53957        1.90710
H          4.08726        1.34097        2.11023
C          4.28328       -1.13471        0.64755
C          4.66646       -0.76252       -0.64250
H          3.95824       -0.26885       -1.30653
C          5.19088       -1.78142        1.48915
H          4.86295       -2.06682        2.49036
C          5.96101       -1.03277       -1.07937
H          6.27159       -0.74490       -2.08488
C          6.48094       -2.05455        1.05098
H          7.19489       -2.56021        1.70292
C          6.86381       -1.67435       -0.23524
Cl         8.47320       -2.00627       -0.78650
C          0.96060       -1.35062       -1.34753
C          0.82946       -2.51108       -0.58152
H          1.31155       -2.58895        0.39317
C          0.38425       -1.28622       -2.61723
H          0.52347       -0.38118       -3.20924
C          0.09846       -3.58898       -1.07499
H         -0.01742       -4.49346       -0.47696
C         -0.33757       -2.36356       -3.11482
H         -0.79012       -2.32043       -4.10668
C         -0.48513       -3.51101       -2.33518
Cl        -1.39007       -4.85420       -2.95306
C         -2.28834       -2.60737        1.33703
C         -3.03384       -1.76246       -0.80297
C         -3.57885       -4.01873       -0.13464
C         -3.64441       -2.98483       -1.06689
C         -2.90199       -3.82844        1.06930
H         -1.75064       -2.46790        2.27741
H         -2.84430       -4.63689        1.80184
H         -4.04887       -4.98034       -0.35266
H         -4.16422       -3.13676       -2.01505
H         -3.07977       -0.95257       -1.53106
C         -4.17350        0.67231        1.17779
C         -5.01166       -0.29497        1.73314
H         -4.61978       -0.95516        2.50824
C         -4.64965        1.52313        0.18011
H         -3.98999        2.28200       -0.24340
C         -6.32286       -0.42065        1.28798
H         -6.98472       -1.17765        1.71113
C         -5.96220        1.40194       -0.26773
H         -6.34663        2.06156       -1.04720
C         -6.79118        0.42703        0.28460
Cl        -8.42238        0.26844       -0.27965
C         -1.28643        1.93975       -0.99881
C         -1.24944        3.01106       -0.09856
H         -1.60925        2.87664        0.92217
C         -0.90077        2.14169       -2.32758
H         -0.97131        1.30514       -3.02295
C         -0.77196        4.25266       -0.51260
H         -0.72291        5.08619        0.18961
C         -0.43921        3.38399       -2.74626
H         -0.13005        3.54263       -3.78063
C         -0.35728        4.43200       -1.82927
Cl         0.27267        5.96683       -2.33528
