114
Cat231.ts34.5.log	Energy: -2489860.9939446
C         -0.85073        1.84012       -2.78445
H         -0.34764        1.72090       -3.74805
H         -1.94381        1.86446       -2.86617
C         -0.21045        2.61508       -1.78174
H          0.78323        3.02764       -1.98275
H         -0.80806        3.29993       -1.16714
H         -0.26637        1.71935       -0.40317
Co        -0.07239        0.61877       -1.38341
C         -2.98628        0.77450        0.48327
C         -2.91133       -0.97311       -1.92767
C         -1.69469       -1.85653        0.46488
C          2.41299       -1.20588        0.28428
C          3.14734        0.99284       -1.62663
C          2.18813        1.50785        1.09520
P          1.84260        0.43700       -0.39277
P         -1.83904       -0.29956       -0.53737
C          0.30189       -0.48947       -2.64918
O          0.50135       -1.22198       -3.52475
H         -2.28836        1.30432        1.15775
C         -4.02193        0.06107        1.35327
H         -3.51905       -0.62969        2.04826
H         -4.68514       -0.55184        0.72192
C         -4.86272        1.05561        2.14928
H         -5.62299        0.51602        2.73708
H         -4.21628        1.57518        2.88103
C         -5.51851        2.09056        1.24381
H         -6.11371        2.80302        1.83791
H         -6.22642        1.58030        0.56498
C         -4.47164        2.82755        0.41825
H         -3.82061        3.40766        1.09498
H         -4.94906        3.55866       -0.25451
C         -3.61655        1.86072       -0.39355
H         -4.24947        1.39349       -1.16279
H         -2.82689        2.40941       -0.92695
H         -3.02812       -0.12989       -2.62333
H         -2.23503       -1.68112       -2.43391
C         -4.23344       -1.61520       -1.63706
C         -4.31809       -2.93657       -1.17335
H         -3.41008       -3.53541       -1.07722
C         -5.42887       -0.91085       -1.81941
H         -5.38936        0.10182       -2.23068
C         -5.54981       -3.49649       -0.84935
H         -5.59851       -4.52653       -0.48732
C         -6.67674       -1.45252       -1.49368
C         -7.92448       -0.63501       -1.66490
H         -7.97650        0.16739       -0.91011
H         -7.95443       -0.15046       -2.65277
H         -8.82923       -1.24974       -1.55885
C         -6.72247       -2.75656       -0.99204
H         -7.68584       -3.20229       -0.73029
H         -2.70612       -2.20125        0.73739
H         -1.30083       -2.60052       -0.24676
C         -0.82198       -1.85516        1.68717
C         -0.53668       -0.69853        2.42026
H         -0.92762        0.26122        2.08516
C         -0.27314       -3.06499        2.12705
H         -0.48499       -3.97609        1.55829
C          0.27712       -0.75897        3.54910
H          0.49650        0.15407        4.10903
C          0.54812       -3.14782        3.25587
C          1.12347       -4.46801        3.67990
H          0.33058       -5.16294        3.99992
H          1.66232       -4.95249        2.85019
H          1.82620       -4.35192        4.51666
C          0.82132       -1.97214        3.96347
H          1.46824       -2.00954        4.84385
H          1.58608       -1.44481        0.97601
C          3.71023       -1.21900        1.10172
H          3.64538       -0.50426        1.93498
H          4.55863       -0.90031        0.47923
C          4.00338       -2.60889        1.65960
H          4.95811       -2.59150        2.21041
H          3.22181       -2.87755        2.39115
C          4.04051       -3.65951        0.55773
H          4.24130       -4.65796        0.98041
H          4.87756       -3.43696       -0.12969
C          2.73410       -3.66394       -0.22487
H          1.91341       -3.96997        0.44812
H          2.76745       -4.40773       -1.03770
C          2.41197       -2.28749       -0.79749
H          3.15258       -2.04001       -1.57668
H          1.43356       -2.31216       -1.29780
H          2.88755        0.45002       -2.54702
H          2.88204        2.04537       -1.81673
C          4.60512        0.83757       -1.32578
C          5.29409        1.71857       -0.48079
H          4.78535        2.59212       -0.06844
C          5.31717       -0.23513       -1.87552
H          4.80107       -0.91100       -2.56403
C          6.62981        1.49221       -0.16132
H          7.15286        2.18542        0.50212
C          6.65664       -0.48382       -1.56227
C          7.35987       -1.68063       -2.13405
H          7.03282       -2.60522       -1.62938
H          7.13943       -1.80264       -3.20518
H          8.44985       -1.60587       -2.01460
C          7.30542        0.39206       -0.68544
H          8.35301        0.21905       -0.42483
H          1.81027        0.92090        1.94532
H          3.27883        1.58265        1.21495
C          1.54964        2.86104        1.08876
C          2.10570        3.93804        0.39002
H          3.04348        3.81022       -0.15515
C          0.35124        3.07413        1.78155
H         -0.08297        2.24586        2.34754
C          1.46593        5.17551        0.37167
H          1.90742        6.00498       -0.18616
C         -0.30125        4.30937        1.78419
C         -1.55883        4.51446        2.57793
H         -2.03367        3.55751        2.83748
H         -1.34689        5.04468        3.52123
H         -2.29129        5.12045        2.02402
C          0.26860        5.36125        1.05650
H         -0.22659        6.33596        1.03610
