74
Cat256.ts34.5.log	Energy: -2004399.2434624
C         -0.65479       -3.25466       -1.19375
H         -0.50351       -4.15670       -0.59363
H         -1.65992       -3.18514       -1.62531
C          0.44449       -2.74715       -1.94660
H          1.42852       -3.21766       -1.84896
H          0.26081       -2.40836       -2.97405
H          0.28983       -1.12024       -1.67376
Co         0.05614       -1.61159       -0.30015
C         -1.48218        1.18199       -1.36558
C         -3.27320       -0.98367       -0.86625
C         -2.12028        0.44110        1.35373
C          1.40677        0.94703        1.44116
C          3.26674       -1.07229        0.73903
C          2.26722        0.71387       -1.31604
P          1.70681       -0.29570        0.11955
P         -1.66020       -0.29024       -0.27715
C          0.09030       -2.40795        1.23831
O          0.07381       -2.90996        2.28161
C         -1.31768        2.48649       -0.88521
C         -1.37205        0.96805       -2.74902
C         -0.93349        3.31338       -3.12656
C         -1.10947        2.01924       -3.62102
C         -1.03884        3.54088       -1.75696
H         -1.38610        2.69041        0.18383
H         -0.90588        4.54957       -1.35706
H         -0.71656        4.13904       -3.80834
H         -1.02935        1.82704       -4.69383
H         -1.46973       -0.04572       -3.14807
H         -4.01493       -0.17486       -0.97332
H         -3.09105       -1.38022       -1.87948
C         -3.79052       -2.09551        0.03849
H         -4.06993       -1.67257        1.01820
H         -2.96877       -2.80151        0.24245
C         -4.98049       -2.83456       -0.55290
H         -5.82169       -2.15076       -0.75053
H         -4.71428       -3.31455       -1.50848
H         -5.34245       -3.62250        0.12507
H         -2.11217       -0.40603        2.06024
H         -1.25934        1.05836        1.65767
C         -3.42060        1.22624        1.47116
H         -4.27804        0.54809        1.32883
H         -3.49231        1.96788        0.65853
C         -3.54428        1.92736        2.81607
H         -3.50140        1.20471        3.64668
H         -2.71967        2.64308        2.96604
H         -4.49215        2.48066        2.90123
C          1.20802        0.49090        2.75402
C          1.24749        2.31346        1.18123
C          0.69790        2.73232        3.49904
C          0.89277        3.19770        2.20078
C          0.86265        1.37372        3.77262
H          1.29166       -0.57446        2.98181
H          0.70727        0.99525        4.78571
H          0.41830        3.42471        4.29654
H          0.76778        4.25966        1.97413
H          1.37812        2.70041        0.16997
H          4.02550       -0.29096        0.91330
H          3.02143       -1.50250        1.72416
C          3.78749       -2.16733       -0.17955
H          4.00247       -1.74763       -1.17822
H          2.97792       -2.89997       -0.32865
C          5.02966       -2.85537        0.36326
H          5.85850       -2.14186        0.49783
H          4.83012       -3.31742        1.34326
H          5.37910       -3.64903       -0.31458
H          2.33266        0.00214       -2.15544
H          1.41194        1.36391       -1.57064
C          3.55888        1.51042       -1.18972
H          4.41218        0.81564       -1.11761
H          3.56297        2.08519       -0.24877
C          3.76695        2.45262       -2.36618
H          3.79405        1.90039       -3.31916
H          2.94578        3.18418       -2.43748
H          4.71032        3.01241       -2.27625
