82
Cat285.ts34.5.log	Energy: -2148034.8315001
C         -3.14556       -0.33097       -2.39982
H         -4.17786       -0.10213       -2.11898
H         -2.80695        0.21785       -3.28623
C         -2.66589       -1.66005       -2.20075
H         -3.30555       -2.39412       -1.69935
H         -2.07134       -2.12488       -2.99754
H         -1.15110       -1.35607       -1.61816
Co        -1.90662       -0.35992       -0.83028
C          1.26255        0.33041       -1.71085
C         -0.65420        2.03682       -2.96788
C         -0.02480        2.41839       -0.18532
C         -0.07659       -0.32170        1.99780
C         -2.05426       -2.36032        1.94423
C          0.31593       -2.62513        0.29320
P         -0.96079       -1.39960        0.80404
P         -0.38624        1.08040       -1.40498
C         -3.05691        0.47913        0.15678
O         -3.79477        1.08382        0.81429
C          1.37379       -0.62513       -2.73827
H          0.51593       -0.82138       -3.38802
C          2.37483        0.52188       -0.89077
H          2.33850        1.24436       -0.07500
C          2.53340       -1.35609       -2.92851
H          2.61430       -2.10049       -3.72291
C          3.54865       -0.22068       -1.05549
H          4.38586       -0.04418       -0.37929
C          3.63286       -1.17148       -2.07502
O          4.70877       -1.94937       -2.31017
C          5.81918       -1.83165       -1.46726
H          5.56512       -2.06912       -0.41846
H          6.56441       -2.55420       -1.82334
H          6.25903       -0.81916       -1.50344
H          0.25899        2.60011       -3.22254
H         -0.79755        1.29181       -3.76909
C         -1.86819        2.95431       -2.88926
H         -1.67491        3.75708       -2.15764
H         -2.72171        2.38437       -2.48691
C         -2.23484        3.56842       -4.23109
H         -1.40099        4.15768       -4.64565
H         -2.48582        2.78884       -4.96843
H         -3.10553        4.23628       -4.14443
H         -1.01289        2.79525        0.12818
H          0.36749        1.90471        0.70601
C          0.88785        3.57209       -0.58122
H          0.40096        4.18500       -1.35764
H          1.81101        3.18717       -1.04489
C          1.24104        4.44826        0.61294
H          0.33370        4.86985        1.07551
H          1.76344        3.86862        1.39178
H          1.89091        5.28886        0.32476
C          1.32166       -0.25837        2.08877
H          1.94259       -0.95490        1.52440
C         -0.81609        0.60838        2.73866
H         -1.90708        0.61359        2.67776
C          1.95170        0.71232        2.85628
H          3.04054        0.77245        2.91169
C         -0.19983        1.58317        3.51960
H         -0.81879        2.29737        4.06277
C          1.19772        1.65493        3.56546
O          1.89216        2.58986        4.24387
C          1.18635        3.58931        4.92610
H          0.54466        3.17029        5.72093
H          1.93588        4.24583        5.38563
H          0.56001        4.18672        4.24027
H         -1.44101       -2.84132        2.72486
H         -2.68915       -1.61587        2.45313
C         -2.93127       -3.36797        1.21678
H         -2.29759       -4.09747        0.68194
H         -3.49336       -2.82932        0.43692
C         -3.88552       -4.10348        2.14384
H         -3.34025       -4.66671        2.91826
H         -4.55738       -3.39935        2.66021
H         -4.51355       -4.81866        1.59093
H         -0.15267       -3.20666       -0.51761
H          1.10104       -2.03432       -0.20922
C          0.90596       -3.55387        1.34590
H          0.13586       -4.27001        1.67790
H          1.18763       -2.98258        2.24600
C          2.11645       -4.31199        0.82070
H          1.85676       -4.91344       -0.06499
H          2.91611       -3.61721        0.51525
H          2.53144       -4.99301        1.57935
