78
Cat297.ts34.5.log	Energy: -2317644.2905185
C          1.41611       -0.75744       -2.93870
H          1.04530       -0.39698       -3.90227
H          2.44252       -0.44514       -2.71527
C          0.95723       -2.01104       -2.46223
H          0.20578       -2.56178       -3.03501
H          1.66944       -2.66679       -1.94860
H          0.58547       -1.66519       -0.82361
Co         0.05504       -0.45563       -1.47606
C          2.94187       -0.13471        0.18276
O          2.14310        2.03389       -0.99491
O          0.83017        1.30753        1.09095
C         -2.74188        0.27301        0.29818
O         -2.51175       -2.19470       -0.44296
O         -0.83320       -1.40849        1.31573
P         -1.46728       -0.95728       -0.13412
P          1.40785        0.70691       -0.33921
C         -0.94454        0.54226       -2.50421
O         -1.58000        1.23843       -3.16762
C          2.79524       -1.33515        0.89328
H          1.78941       -1.70160        1.12389
C          4.22469        0.33739       -0.10799
H          4.33304        1.26974       -0.66473
C          3.91066       -2.04446        1.32367
H          3.81972       -2.97595        1.88543
C          5.35066       -0.37009        0.31036
H          6.36202       -0.02205        0.09190
C          5.17671       -1.54985        1.02238
F          6.24820       -2.22955        1.42509
C          1.38148        2.99744       -1.72880
H          0.30593        2.79873       -1.56973
C          1.69215        2.86260       -3.20481
H          1.43541        1.85766       -3.56166
H          2.76487        3.03433       -3.38433
H          1.11654        3.59482       -3.79016
C          1.72012        4.37094       -1.18506
H          1.47512        4.44635       -0.11661
H          2.79541        4.57388       -1.30607
H          1.15862        5.14846       -1.72406
C          1.57760        2.14832        1.97577
H          2.40891        2.60223        1.40790
C          2.13566        1.33929        3.13103
H          2.83671        0.57081        2.78109
H          1.31842        0.84207        3.67467
H          2.66917        1.99744        3.83341
C          0.63625        3.24105        2.44483
H          0.23416        3.80661        1.59153
H         -0.21173        2.80184        2.99289
H          1.15530        3.94418        3.11320
C         -2.31686        1.57053        0.61446
H         -1.24772        1.79467        0.62062
C         -4.11038       -0.01843        0.30134
H         -4.44086       -1.02366        0.03639
C         -3.23799        2.55648        0.95002
H         -2.92476        3.57044        1.20594
C         -5.04211        0.96309        0.63038
H         -6.11410        0.75742        0.63632
C         -4.59177        2.23745        0.95234
F         -5.47872        3.17819        1.26794
C         -2.11653       -3.34574       -1.19073
H         -1.01886       -3.44873       -1.12895
C         -2.51985       -3.15508       -2.63875
H         -2.04342       -2.24965       -3.04134
H         -3.61143       -3.03686       -2.71767
H         -2.21597       -4.01823       -3.25017
C         -2.76551       -4.55139       -0.54401
H         -2.44820       -4.65194        0.50371
H         -3.86174       -4.45210       -0.56287
H         -2.49215       -5.47223       -1.08041
C         -1.64047       -1.75597        2.44351
H         -2.68228       -1.89971        2.10637
C         -1.58681       -0.63387        3.46089
H         -1.97253        0.30103        3.03215
H         -0.54731       -0.46406        3.77881
H         -2.18836       -0.88522        4.34738
C         -1.11514       -3.06967        2.98616
H         -1.15292       -3.84949        2.21224
H         -0.06847       -2.95670        3.30902
H         -1.71032       -3.40384        3.84910
