74
Cat294.ts34.5.log	Energy: -2128877.1095738
C         -0.60704       -3.57681       -1.02871
H          0.03554       -4.41341       -0.73915
H         -1.66388       -3.74742       -0.79866
C         -0.27239       -2.83735       -2.19732
H          0.64769       -3.07126       -2.74337
H         -1.08276       -2.55228       -2.88042
H         -0.51067       -1.25304       -1.69616
Co         0.16115       -1.79493       -0.50426
C         -2.00054        0.73865       -0.31948
C         -3.10592       -1.78234        0.51583
C         -1.23365       -0.21360        2.30114
C          1.77965        0.89260        0.63926
C          3.33943       -0.76968       -1.09019
C          1.16054        1.06176       -2.18540
P          1.57505       -0.17616       -0.84827
P         -1.49732       -0.81128        0.54574
C          1.21616       -2.63566        0.57477
O          1.92956       -3.21572        1.28108
C         -1.84831        2.02898        0.20010
H         -1.48515        2.17599        1.21676
C         -2.47031        0.62101       -1.63916
H         -2.58893       -0.37097       -2.08322
C         -2.13051        3.16152       -0.56618
H         -2.00279        4.16784       -0.16249
C         -2.77186        1.73504       -2.41249
H         -3.13609        1.63998       -3.43701
C         -2.58769        3.00143       -1.86534
F         -2.85838        4.07625       -2.60383
H         -3.07841       -2.18967       -0.51114
C         -3.02310       -2.96717        1.47352
H         -3.80682       -3.70519        1.23925
H         -2.04785       -3.47225        1.41426
H         -3.17819       -2.64712        2.51491
C         -4.41575       -1.01920        0.67021
H         -4.48112       -0.15899       -0.01079
H         -5.26174       -1.68913        0.44316
H         -4.56028       -0.64878        1.69372
H         -0.50007        0.59545        2.13741
C         -2.44845        0.36368        3.02165
H         -2.12511        0.89945        3.92925
H         -3.02711        1.06579        2.40576
H         -3.13057       -0.43573        3.34722
C         -0.53707       -1.25127        3.17507
H          0.35252       -1.67070        2.69161
H         -0.21893       -0.78220        4.11995
H         -1.20394       -2.08745        3.43005
C          2.32322        0.31315        1.79859
H          2.67249       -0.72133        1.78360
C          1.32695        2.21501        0.72233
H          0.89176        2.70716       -0.14676
C          2.40978        1.01856        2.99304
H          2.82842        0.56529        3.89327
C          1.39701        2.93415        1.91558
H          1.03987        3.96368        1.98158
C          1.93631        2.32540        3.03946
F          2.00529        3.00441        4.18242
H          3.43250       -1.44805       -0.22434
C          3.44869       -1.63791       -2.33723
H          4.40354       -2.18669       -2.33935
H          2.63058       -2.37096       -2.37321
H          3.41525       -1.03411       -3.25732
C          4.46364        0.25397       -0.99403
H          4.33556        0.93490       -0.14000
H          5.42510       -0.26842       -0.86101
H          4.54992        0.86153       -1.90458
H          0.26469        1.54423       -1.75478
C          2.21356        2.13046       -2.46625
H          1.75790        2.96116       -3.02916
H          2.66672        2.54856       -1.55742
H          3.02481        1.72641       -3.08920
C          0.71310        0.40949       -3.48938
H         -0.10940       -0.29895       -3.33372
H          0.36132        1.18783       -4.18503
H          1.53509       -0.12989       -3.98288
