86
Cat273.ts34.5.log	Energy: -3585025.9107963
C         -0.74477        0.18245       -3.71898
H         -0.60969       -0.66647       -4.39569
H         -1.75815        0.59742       -3.73006
C          0.35172        1.05287       -3.48720
H          1.33283        0.83158       -3.92070
H          0.16221        2.13213       -3.44227
H          0.21572        1.27971       -1.80414
Co         0.00929       -0.16781       -1.88589
C         -1.50931        1.87469        0.26265
C         -3.35526        0.38974       -1.35342
C         -2.12660       -0.93638        0.74176
C          1.49477       -1.37606        0.88150
C          3.27668       -0.80697       -1.26571
C          2.22245        1.33586        0.30607
P          1.68825       -0.22227       -0.52929
P         -1.68162        0.26057       -0.58884
C          0.06338       -1.86606       -2.24938
O          0.08050       -2.99453       -2.50014
C         -1.57344        3.03110       -0.53787
H         -1.86484        2.94634       -1.58903
C         -1.11797        2.03067        1.59197
H         -1.05747        1.16013        2.24639
C         -1.26517        4.27916       -0.02740
H         -1.31898        5.17633       -0.64719
C         -0.78591        3.28127        2.11873
H         -0.46466        3.35134        3.15793
C         -0.85194        4.41638        1.30787
O         -0.53382        5.66083        1.70485
C         -0.11581        5.86305        3.02856
H          0.81640        5.31712        3.25019
H          0.07510        6.93817        3.13473
H         -0.89550        5.56473        3.75117
C         -4.31661        1.33316       -0.97652
H         -4.07636        2.08946       -0.22563
C         -3.69498       -0.57016       -2.31483
H         -2.94943       -1.30954       -2.61974
C         -5.58706        1.32562       -1.54713
H         -6.33618        2.06379       -1.25585
C         -4.96334       -0.59730       -2.88453
H         -5.22759       -1.34794       -3.63106
C         -5.90345        0.35797       -2.49876
Cl        -7.48126        0.34317       -3.21246
C         -2.92378       -0.60338        1.84480
H         -3.30048        0.41535        1.96229
C         -1.71432       -2.26305        0.59325
H         -1.10431       -2.54852       -0.26286
C         -3.24985       -1.55605        2.80562
H         -3.85445       -1.29188        3.67482
C         -2.06017       -3.23341        1.52731
H         -1.73337       -4.26608        1.40103
C         -2.80555       -2.86873        2.64397
Cl        -3.18110       -4.05900        3.84518
C          0.93646       -0.95447        2.09884
H          0.73209        0.10433        2.26077
C          1.73497       -2.74156        0.70959
H          2.16283       -3.10595       -0.22801
C          0.63367       -1.85649        3.10327
H          0.18593       -1.53250        4.04429
C          1.42363       -3.66483        1.70819
H          1.61750       -4.72320        1.53186
C          0.85832       -3.22613        2.91127
O          0.48669       -4.03212        3.92067
C          0.55310       -5.41944        3.74498
H          1.59154       -5.76933        3.60891
H          0.14092       -5.87076        4.65586
H         -0.05080       -5.75023        2.88196
C          4.42885       -1.02634       -0.49962
H          4.41101       -0.86528        0.57990
C          3.32986       -1.04419       -2.64044
H          2.42425       -0.88977       -3.23077
C          5.60668       -1.46533       -1.09170
H          6.50402       -1.63968       -0.49584
C          4.50274       -1.48369       -3.25079
H          4.54079       -1.67124       -4.32497
C          5.63664       -1.68949       -2.46989
Cl         7.10164       -2.23723       -3.21096
C          2.96205        1.32990        1.49777
H          3.21532        0.38557        1.98322
C          1.90841        2.57107       -0.26743
H          1.32591        2.60483       -1.18916
C          3.36165        2.51547        2.10488
H          3.92901        2.50326        3.03684
C          2.30120        3.76804        0.32420
H          2.03022        4.72659       -0.12010
C          3.02302        3.73093        1.51296
Cl         3.49612        5.21330        2.27875
