62
Cat204.ts34.5.log	Energy: -1811749.1236825
C         -0.97982        3.06185        0.36199
H         -0.41651        3.88809       -0.08134
H         -2.04226        3.07080        0.09133
C         -0.62193        2.62302        1.67481
H          0.26414        3.04933        2.15800
H         -1.42811        2.44123        2.39759
H         -0.69359        1.02448        1.53384
Co        -0.01898        1.31768        0.23400
C         -2.78746       -0.76394       -0.23541
C         -2.29154        1.24895       -2.26046
C         -0.62973       -1.02111       -2.13214
C          2.75336       -0.72277        0.05796
C          2.03764        0.30085        2.67958
C          0.47781       -1.74737        1.55234
P          1.28630       -0.16520        1.06689
P         -1.40932        0.22104       -1.01517
C          1.07572        1.96449       -0.94032
O          1.73947        2.36784       -1.80021
H         -2.24480       -1.52443        0.35820
C         -3.73852       -1.49140       -1.18430
H         -3.18165       -2.14956       -1.86973
H         -4.26124       -0.75099       -1.81536
C         -4.77813       -2.30526       -0.41636
H         -5.46817       -2.79834       -1.12058
H         -4.26647       -3.11504        0.13508
C         -5.55248       -1.43852        0.56998
H         -6.27048       -2.05069        1.13961
H         -6.15211       -0.69940        0.00794
C         -4.61066       -0.70095        1.51494
H         -4.09260       -1.43550        2.15831
H         -5.17972       -0.04295        2.19176
C         -3.56932        0.10785        0.74886
H         -4.07781        0.91744        0.19352
H         -2.86780        0.59940        1.44087
H         -2.94709        1.97070       -1.75323
H         -1.53578        1.82380       -2.81566
H         -2.88640        0.65439       -2.96993
H         -1.33200       -1.47333       -2.84890
H          0.16898       -0.51217       -2.69218
H         -0.16409       -1.82027       -1.53675
H          2.34242       -0.78003       -0.96738
C          3.33717       -2.09127        0.40992
H          2.56164       -2.87086        0.36588
H          3.70970       -2.07685        1.45095
C          4.48112       -2.46495       -0.53131
H          4.90587       -3.43900       -0.23811
H          4.07217       -2.59887       -1.54921
C          5.56671       -1.39631       -0.56714
H          6.35120       -1.67150       -1.29066
H          6.05950       -1.34686        0.42110
C          4.98299       -0.02897       -0.90138
H          4.58965       -0.03476       -1.93362
H          5.76806        0.74378       -0.87383
C          3.85593        0.34065        0.05687
H          4.27175        0.42658        1.07649
H          3.44541        1.32690       -0.20239
H          2.57704        1.25180        2.57347
H          1.22351        0.45578        3.40265
H          2.72174       -0.47019        3.06729
H          1.14339       -2.41180        2.12229
H         -0.39721       -1.49697        2.16920
H          0.11855       -2.28086        0.66056
