90
Cat278.ts34.5.log	Energy: -2620485.7216611
C          1.27735       -2.13587       -3.05518
H          0.95922       -2.12238       -4.10108
H          2.32280       -1.84613       -2.90436
C          0.69774       -3.08295       -2.17005
H         -0.12822       -3.71433       -2.51279
H          1.34184       -3.58191       -1.43669
H          0.44961       -2.13798       -0.81850
Co        -0.05128       -1.21014       -1.85377
C          2.93898       -0.28684       -0.67768
O          1.41437        1.67608       -1.77660
O          0.67246        0.64589        0.51411
C         -2.54472        0.43962       -0.24146
O         -2.89540       -2.20069       -0.90919
O         -1.44023       -1.47103        1.07246
P         -1.67401       -1.12069       -0.54396
P          1.21817        0.21161       -0.99327
C         -0.88160       -0.62255       -3.27331
O         -1.38641       -0.22678       -4.22874
C          3.97729        0.02164       -1.56727
H          3.78108        0.67939       -2.41711
C          3.19517       -1.17977        0.36746
H          2.39198       -1.46221        1.05358
C          5.24615       -0.50922       -1.38735
H          6.06489       -0.27343       -2.06974
C          4.46426       -1.71807        0.55963
H          4.62782       -2.40319        1.39169
C          5.50324       -1.37847       -0.31735
O          6.76234       -1.84253       -0.21720
C          7.07742       -2.72608        0.82282
H          6.48754       -3.65760        0.76278
H          8.14117       -2.97237        0.71459
H          6.91627       -2.26724        1.81423
C          1.71116        2.87538       -1.18186
C          3.00038        3.40155       -1.26281
H          3.77446        2.84932       -1.79582
C          0.70515        3.57755       -0.51531
H         -0.29586        3.14785       -0.46152
C          3.28556        4.61944       -0.64791
H          4.29790        5.02641       -0.70776
C          1.00288        4.78702        0.10398
H          0.21783        5.31750        0.64811
C          2.29394        5.31117        0.04548
H          2.52624        6.25795        0.53779
C          1.10249        1.40208        1.56545
C          2.42304        1.80200        1.77283
H          3.20193        1.52632        1.06411
C          0.10257        1.76954        2.47078
H         -0.92050        1.44657        2.26682
C          2.72714        2.58727        2.88349
H          3.75958        2.91226        3.03306
C          0.42355        2.54771        3.57828
H         -0.36495        2.83734        4.27734
C          1.73835        2.96370        3.79032
H          1.98979        3.58118        4.65527
C         -3.35136        0.64863        0.89180
H         -3.49354       -0.15790        1.61276
C         -2.36033        1.49566       -1.13328
H         -1.71042        1.36813       -2.00096
C         -3.95303        1.87482        1.11193
H         -4.57869        2.05067        1.98881
C         -2.96577        2.73436       -0.92523
H         -2.79304        3.53641       -1.64271
C         -3.76472        2.93168        0.20606
O         -4.37698        4.08900        0.50824
C         -4.19743        5.19065       -0.33955
H         -4.57777        4.99175       -1.35659
H         -4.76815        6.01951        0.09742
H         -3.13513        5.48412       -0.40888
C         -4.10220       -2.22445       -0.25988
C         -5.18566       -1.54457       -0.81651
H         -5.03987       -0.99729       -1.74949
C         -4.24571       -2.93160        0.93458
H         -3.38668       -3.45832        1.35319
C         -6.41750       -1.56648       -0.16785
H         -7.26474       -1.03065       -0.60233
C         -5.48263       -2.94538        1.57646
H         -5.59585       -3.49729        2.51272
C         -6.56968       -2.26236        1.03142
H         -7.53644       -2.27546        1.53954
C         -0.54286       -2.37235        1.55086
C         -0.44200       -3.66505        1.02837
H         -1.09174       -3.96438        0.20360
C          0.27355       -1.97420        2.61179
H          0.17815       -0.95703        2.99492
C          0.49440       -4.54914        1.56202
H          0.57519       -5.55680        1.14724
C          1.19686       -2.87089        3.14333
H          1.83433       -2.55382        3.97232
C          1.31793       -4.15807        2.61693
H          2.04682       -4.85703        3.03294
