102
Cat232.ts34.5.log	Energy: -2640225.4810471
C          0.21414        1.80344       -3.05658
H          0.46725        1.32771       -4.00838
H         -0.74053        2.34189       -3.08134
C          1.27090        2.33113       -2.25773
H          2.30701        2.16772       -2.57428
H          1.14520        3.32157       -1.80165
H          0.84945        1.86734       -0.78098
Co         0.53332        0.59916       -1.48741
C         -2.20206        1.95764        0.28078
C         -2.73365        0.33730       -2.10025
C         -1.74460       -0.94092        0.44309
C          1.83328       -1.69605        0.82330
C          3.62462       -0.39209       -1.20503
C          2.66285        0.98943        1.20068
P          2.08158       -0.13510       -0.17200
P         -1.49392        0.53188       -0.69249
C          0.49709       -0.77266       -2.53623
O          0.38580       -1.67499       -3.25665
H         -1.73151        1.83200        1.27521
C         -3.71933        1.99386        0.47356
H         -4.10267        1.03691        0.85057
H         -4.19587        2.16149       -0.50809
C         -4.12434        3.13230        1.40574
H         -5.21942        3.14607        1.52890
H         -3.70422        2.93888        2.40938
C         -3.62837        4.47824        0.89056
H         -3.88363        5.28334        1.59855
H         -4.15232        4.71746       -0.05265
C         -2.12634        4.45347        0.63002
H         -1.59541        4.34642        1.59443
H         -1.79334        5.41063        0.19611
C         -1.72464        3.29779       -0.28059
H         -2.16687        3.45209       -1.28237
H         -0.63526        3.27904       -0.42269
H         -3.23916        1.30751       -2.21259
H         -2.09894        0.21559       -2.98810
C         -3.73277       -0.77525       -2.04969
C         -3.33589       -2.08586       -2.35660
H         -2.29754       -2.27812       -2.64297
C         -5.07727       -0.55337       -1.72874
H         -5.41544        0.45819       -1.49499
C         -4.24100       -3.14364       -2.32190
H         -3.93760       -4.16434       -2.56162
C         -5.99893       -1.59713       -1.69996
H         -7.04855       -1.42675       -1.45382
C         -5.56631       -2.88478       -1.99047
F         -6.44061       -3.89051       -1.96140
H         -1.78742       -1.81516       -0.22321
H         -0.77277       -0.99522        0.94875
C         -2.83329       -0.98681        1.46862
C         -2.66735       -0.34342        2.70340
H         -1.72260        0.16042        2.92537
C         -4.03481       -1.66809        1.24028
H         -4.17559       -2.20896        0.30395
C         -3.68090       -0.32553        3.65707
H         -3.55839        0.18030        4.61649
C         -5.05917       -1.66410        2.18288
H         -5.99900       -2.18933        2.00316
C         -4.87502       -0.97890        3.37709
F         -5.85426       -0.96346        4.28139
H          0.94027       -1.42407        1.41922
C          2.91102       -2.10351        1.83406
H          3.15647       -1.26722        2.50544
H          3.84133       -2.36742        1.31099
C          2.45065       -3.30196        2.66084
H          3.24458       -3.59120        3.36825
H          1.57749       -3.01164        3.27378
C          2.07034       -4.48022        1.77304
H          1.72372       -5.32876        2.38464
H          2.96940       -4.83000        1.23383
C          1.00274       -4.08020        0.76268
H          0.06863       -3.83081        1.29873
H          0.76123       -4.92412        0.09652
C          1.43227       -2.87375       -0.06544
H          2.28637       -3.15480       -0.70535
H          0.62225       -2.57503       -0.74539
H          3.25812       -0.92895       -2.09179
H          3.86578        0.62409       -1.55678
C          4.82550       -1.08415       -0.63967
C          5.72039       -0.44863        0.23184
H          5.58578        0.60638        0.47828
C          5.07521       -2.42562       -0.96286
H          4.41170       -2.93806       -1.66410
C          6.79237       -1.13148        0.80072
H          7.48694       -0.63853        1.48323
C          6.14158       -3.12566       -0.40710
H          6.33271       -4.17104       -0.65606
C          6.98375       -2.46995        0.48268
F          8.00374       -3.13138        1.02620
H          1.95488        0.81135        2.02548
H          3.64598        0.63880        1.54688
C          2.69186        2.44819        0.86846
C          1.62087        3.27682        1.22689
H          0.77728        2.85208        1.77679
C          3.75851        3.02486        0.16749
H          4.61439        2.41194       -0.12340
C          1.60216        4.62831        0.89410
H          0.76740        5.27424        1.17105
C          3.75899        4.37429       -0.17586
H          4.58887        4.82538       -0.72245
C          2.67416        5.16102        0.18930
F          2.66526        6.45283       -0.13456
