106
Cat230.ts34.5.log	Energy: -2580009.8970252
C         -0.64919        3.17088        1.14258
H         -1.05952        3.93794        0.48076
H         -1.31865        2.90354        1.96589
C          0.75224        3.08191        1.33346
H          1.43008        3.71269        0.75069
H          1.13926        2.85940        2.33399
H          0.96763        1.38840        1.25532
Co         0.07362        1.59333        0.10591
C         -1.11805       -0.98588        2.11436
O         -2.89615        0.72695        1.19739
O         -1.77053       -0.85378       -0.53920
C          1.20515       -0.86445       -2.05928
O          2.98102        0.86326       -1.08620
O          1.92260       -0.82517        0.57779
P          1.49297        0.25930       -0.62874
P         -1.38227        0.19595        0.72061
C         -0.35688        2.38870       -1.39355
O         -0.64859        2.97217       -2.34341
H         -0.53938       -1.79201        1.62479
C         -2.37271       -1.59044        2.74912
H         -3.02072       -2.04985        1.99120
H         -2.96019       -0.77684        3.20517
C         -1.99942       -2.62107        3.81006
H         -2.91436       -3.03147        4.26753
H         -1.48972       -3.47180        3.32180
C         -1.08724       -2.02958        4.87747
H         -0.79697       -2.80031        5.61008
H         -1.64424       -1.25860        5.44039
C          0.14966       -1.39528        4.25281
H          0.76999       -2.18245        3.78672
H          0.77728       -0.92496        5.02727
C         -0.21410       -0.36936        3.18562
H         -0.73697        0.48611        3.65179
H          0.69679        0.02723        2.71489
C         -3.56207        1.74420        0.57708
C         -3.54331        1.90553       -0.80739
H         -2.97928        1.20311       -1.42327
C         -4.29373        2.61996        1.38203
H         -4.29507        2.46832        2.46288
C         -4.22880        2.96769       -1.41010
C         -4.15607        3.14640       -2.89819
H         -4.52483        2.25187       -3.42479
H         -4.75164        4.00740       -3.23175
H         -3.11302        3.30242       -3.21514
C         -4.98963        3.66456        0.78529
H         -5.56248        4.35592        1.40821
C         -4.95288        3.84494       -0.59842
H         -5.49401        4.67788       -1.05415
C         -2.61266       -1.92850       -0.49839
C         -3.99509       -1.74909       -0.47258
H         -4.39849       -0.73490       -0.46284
C         -2.06454       -3.21245       -0.52643
H         -0.98033       -3.32969       -0.57110
C         -4.85350       -2.85306       -0.43779
C         -6.34038       -2.64746       -0.41709
H         -6.70665       -2.33225       -1.40793
H         -6.87183       -3.56965       -0.14362
H         -6.62507       -1.86041        0.29710
C         -2.91522       -4.31323       -0.49351
H         -2.49497       -5.32179       -0.50724
C         -4.29715       -4.13749       -0.44052
H         -4.95552       -5.00923       -0.40746
H          0.71677       -1.73069       -1.57442
C          2.45888       -1.34837       -2.79309
H          3.18270       -1.78923       -2.09528
H          2.95715       -0.47621       -3.24728
C          2.09138       -2.36174       -3.87247
H          3.00208       -2.68456       -4.40280
H          1.67769       -3.26574       -3.38949
C          1.07089       -1.79956       -4.85431
H          0.79027       -2.56199       -5.59918
H          1.53261       -0.96830       -5.41751
C         -0.16440       -1.28339       -4.12681
H         -0.69611       -2.13058       -3.65652
H         -0.87322       -0.83042       -4.83861
C          0.19454       -0.27209       -3.04441
H          0.62243        0.63448       -3.50714
H         -0.70976        0.03296       -2.50250
C          3.52120        1.95157       -0.45549
C          3.83631        1.90749        0.90199
H          3.62503        0.99794        1.46842
C          3.75527        3.10400       -1.20313
H          3.49020        3.11270       -2.26152
C          4.38246        3.02518        1.54129
C          4.66348        2.98734        3.01531
H          5.07730        2.01547        3.32241
H          5.37196        3.77322        3.31254
H          3.73644        3.14233        3.59259
C          4.31000        4.21428       -0.57349
H          4.49796        5.12338       -1.14974
C          4.61956        4.17857        0.78586
H          5.04906        5.05983        1.26902
C          2.71186       -1.93355        0.44348
C          4.09454       -1.81536        0.30352
H          4.54069       -0.82053        0.25790
C          2.11176       -3.19240        0.50264
H          1.03126       -3.26279        0.63918
C          4.89776       -2.95519        0.19173
C          6.37989       -2.81404        0.00005
H          6.61293       -2.49814       -1.03013
H          6.80069       -2.05242        0.67338
H          6.90324       -3.76266        0.18374
C          2.90772       -4.32921        0.39646
H          2.44548       -5.31818        0.44232
C          4.28754       -4.21401        0.23757
H          4.90258       -5.11358        0.15474
