90
Cat245.ts34.5.log	Energy: -2386709.3018960
C         -0.47147       -1.33058       -3.13114
H         -0.20504       -2.36607       -3.36262
H         -1.49744       -1.06202       -3.40318
C          0.53695       -0.33868       -3.18176
H          1.57889       -0.61855       -3.37191
H          0.28361        0.64300       -3.59912
H          0.27227        0.54699       -1.74550
Co         0.06668       -0.82409       -1.25111
C         -1.54730        1.87642       -0.10586
C         -3.27580       -0.06577       -1.34315
C         -2.36863       -0.52407        1.23058
C          1.92218       -1.16314        1.56242
C          3.38845       -0.73078       -0.84462
C          2.06052        1.45147        0.39200
P          1.77831       -0.30874       -0.05637
P         -1.70396        0.06750       -0.38487
C          0.07275       -2.50921       -0.83464
O          0.05967       -3.63487       -0.57408
C         -1.28157        2.41844        1.15599
C         -1.55537        2.73584       -1.21509
C         -1.10532        4.63471        0.20792
C         -1.35392        4.10357       -1.05825
C         -1.05498        3.78572        1.31029
H         -1.25732        1.76733        2.03259
H         -0.83873        4.18711        2.30315
H         -0.94015        5.70785        0.33143
H         -1.38310        4.75906       -1.93235
H         -1.72872        2.32719       -2.21469
C         -3.58622       -1.33373       -1.85384
H         -2.87606       -2.15355       -1.71420
C         -4.20232        0.96488       -1.52384
H         -4.00028        1.96157       -1.12552
C         -4.78411       -1.56035       -2.52069
H         -5.00492       -2.56148       -2.90215
C         -5.39722        0.73434       -2.20441
H         -6.10657        1.55705       -2.33317
C         -5.71054       -0.52756       -2.71724
C         -6.98475       -0.77031       -3.47160
H         -7.71565        0.03240       -3.29899
H         -6.79745       -0.82012       -4.55725
H         -7.44844       -1.72488       -3.18022
C         -3.44331        0.12233        1.86160
H         -3.88014        1.01703        1.41075
C         -1.85228       -1.67711        1.81885
H         -1.02401       -2.20379        1.34545
C         -3.96212       -0.36360        3.05350
H         -4.79626        0.15972        3.53012
C         -2.38321       -2.16840        3.01238
H         -1.95466       -3.07252        3.45331
C         -3.44055       -1.52139        3.65294
C         -4.02107       -2.04604        4.93322
H         -5.05726       -2.39124        4.78509
H         -3.43881       -2.89258        5.32307
H         -4.05061       -1.26517        5.70931
C          2.79324       -2.24025        1.75733
C          1.06099       -0.79261        2.60413
C          1.95362       -2.54428        4.00486
C          1.08241       -1.47080        3.81897
C          2.80418       -2.92832        2.97024
H          3.47023       -2.54390        0.95606
H          3.48734       -3.77024        3.10602
H          1.96694       -3.08270        4.95560
H          0.40177       -1.16691        4.61775
H          0.36146        0.03371        2.46090
C          3.43497       -1.79563       -1.74963
H          2.51036       -2.32762       -1.98833
C          4.57612       -0.04970       -0.55264
H          4.56421        0.78978        0.14637
C          4.63952       -2.18212       -2.33242
H          4.65329       -3.02437       -3.02994
C          5.77430       -0.43327       -1.14619
H          6.69119        0.11190       -0.90385
C          5.82990       -1.50534       -2.04644
C          7.12104       -1.89138       -2.70611
H          7.97510       -1.76685       -2.02412
H          7.10309       -2.93581       -3.04875
H          7.31503       -1.25893       -3.58867
C          2.53855        1.86827        1.63834
H          2.74202        1.13412        2.42007
C          1.84067        2.42500       -0.59030
H          1.46896        2.12613       -1.57288
C          2.76116        3.21976        1.89898
H          3.12508        3.52102        2.88545
C          2.08038        3.76720       -0.33092
H          1.89310        4.50517       -1.11530
C          2.53158        4.19369        0.92429
C          2.72162        5.65271        1.21339
H          3.23966        6.16363        0.38770
H          1.74664        6.15291        1.34103
H          3.30022        5.81311        2.13402
