90
Cat280.ts34.5.log	Energy: -2869467.2531826
C          0.90056        0.33402        3.66978
H          0.46417       -0.27635        4.46414
H          1.99359        0.28469        3.63074
C          0.23481        1.52349        3.27668
H         -0.75139        1.75913        3.68758
H          0.82915        2.42238        3.06910
H          0.28616        1.45716        1.64562
Co        -0.03143        0.03243        1.90460
C          2.90027        0.52126        0.10484
O          2.46890       -1.80419        1.39649
O          1.24720       -1.25505       -0.81490
C         -2.93023       -0.41669       -0.01726
O         -2.50569        1.84811        1.41955
O         -1.22814        1.37360       -0.75862
P         -1.62306        0.61777        0.68353
P          1.57361       -0.56628        0.68305
C         -0.64907       -1.45308        2.56627
O         -0.98512       -2.44884        3.03887
C          3.23287        1.62645        0.90041
H          2.64429        1.84662        1.79371
C          3.65693        0.27208       -1.04352
H          3.40668       -0.58123       -1.67593
C          4.29508        2.45123        0.56777
H          4.55567        3.32093        1.17288
C          4.71833        1.09967       -1.39643
H          5.28749        0.87872       -2.29956
C          5.04659        2.19691       -0.58768
O          6.05173        3.05025       -0.84089
C          6.80924        2.88191       -2.00726
H          6.18395        2.95968       -2.91384
H          7.55178        3.68944       -2.01843
H          7.33624        1.91181       -2.01873
C          3.65473       -2.24933        0.87879
C          3.67257       -3.20525       -0.13841
H          2.73116       -3.59753       -0.52563
C          4.85308       -1.74008        1.38211
H          4.81681       -0.98656        2.17046
C          4.88816       -3.64577       -0.65691
H          4.92959       -4.39246       -1.45196
C          6.06960       -2.17699        0.86829
H          7.01865       -1.78961        1.24289
C          6.07142       -3.12311       -0.15000
F          7.23587       -3.53967       -0.65064
C          0.19644       -2.10821       -0.99447
C         -0.06333       -3.16207       -0.11310
H          0.57723       -3.31434        0.75638
C         -0.62047       -1.91467       -2.10908
H         -0.40986       -1.08176       -2.78053
C         -1.15198       -4.00121       -0.33554
H         -1.38572       -4.81359        0.35447
C         -1.69933       -2.76056       -2.34317
H         -2.36083       -2.61632       -3.19830
C         -1.95686       -3.78754       -1.44535
F         -3.01435       -4.58247       -1.64941
C         -3.56914       -0.08835       -1.22646
H         -3.23834        0.78511       -1.78885
C         -3.37219       -1.53874        0.68502
H         -2.90379       -1.81840        1.62885
C         -4.59915       -0.86971       -1.71566
H         -5.09607       -0.62923       -2.65732
C         -4.40862       -2.33385        0.20101
H         -4.71000       -3.21490        0.76661
C         -5.02039       -2.01126       -1.01446
O         -5.99856       -2.73109       -1.58432
C         -6.37124       -3.94915       -0.99467
H         -6.80959       -3.80143        0.00778
H         -7.13056       -4.39408       -1.64969
H         -5.51060       -4.63410       -0.91810
C         -3.68717        2.30997        0.89973
C         -3.69344        3.28915       -0.09468
H         -2.74873        3.68569       -0.46895
C         -4.89026        1.79133        1.38067
H         -4.86166        1.01956        2.15137
C         -4.90346        3.74672       -0.61125
H         -4.93626        4.51148       -1.38927
C         -6.10110        2.24410        0.86743
H         -7.05439        1.84957        1.22312
C         -6.09221        3.21589       -0.12644
F         -7.25063        3.64964       -0.62400
C         -0.18027        2.23270       -0.90213
C          0.02402        3.31215       -0.03558
H         -0.66599        3.47912        0.79312
C          0.68928        2.02370       -1.97250
H          0.52033        1.16928       -2.62789
C          1.11146        4.16078       -0.23009
H          1.30163        5.00048        0.44066
C          1.76695        2.87754       -2.17681
H          2.46857        2.72047       -2.99688
C          1.97398        3.92819       -1.29331
F          3.03127        4.72344       -1.46388
