110
Cat284.ts34.5.log	Energy: -2628949.1907084
C         -1.00794       -2.46491       -2.52087
H         -2.01670       -2.76907       -2.21687
H         -0.89718       -2.34025       -3.60159
C          0.09967       -2.95053       -1.77216
H         -0.08485       -3.69506       -0.98742
H          1.06414       -3.11744       -2.26129
H          0.15283       -1.94118       -0.44299
Co        -0.16927       -0.94932       -1.49982
C          3.08630       -1.04304       -0.80892
C          2.07362        1.61030       -1.16237
C          1.29284        0.23775        1.29975
C         -1.80168        1.70863       -0.18820
C         -3.44506       -0.21047       -1.53369
C         -2.55412       -0.63276        1.19148
P         -1.90732       -0.11036       -0.47421
P          1.54998       -0.07425       -0.53249
C         -0.04579       -0.01286       -2.94935
O          0.01206        0.63622       -3.90716
C          3.21898       -1.58075       -2.10283
H          2.39629       -1.45055       -2.81109
C          4.15637       -1.21649        0.07441
H          4.13263       -0.78504        1.07142
C          4.36096       -2.25785       -2.49608
H          4.46126       -2.66666       -3.50325
C          5.30203       -1.92014       -0.29919
H          6.10448       -2.03452        0.42976
C          5.41436       -2.44623       -1.58927
O          6.47923       -3.13287       -2.04355
C          7.55988       -3.34987       -1.18008
H          7.26255       -3.92802       -0.28751
H          8.30371       -3.92592       -1.74493
H          8.01879       -2.40117       -0.84991
H          2.34550        1.42387       -2.21309
H          1.15089        2.20731       -1.17903
C          3.18410        2.29575       -0.42527
C          4.50283        1.85133       -0.59499
H          4.70251        1.04826       -1.30637
C          2.93873        3.38076        0.44576
C          1.57275        3.98536        0.58731
H          1.57344        4.80373        1.32004
H          0.80731        3.26186        0.90373
H          1.21993        4.39711       -0.37150
C          5.55737        2.40810        0.12177
H          6.57214        2.03042       -0.02355
C          4.01228        3.93282        1.15491
H          3.81931        4.77126        1.83001
C          5.30972        3.44666        1.01523
H          6.12629        3.89337        1.58752
H          1.15521        1.32439        1.38003
H          0.31171       -0.21776        1.48415
C          2.27021       -0.22626        2.33447
C          3.19849        0.67284        2.87098
H          3.19995        1.70704        2.51925
C          2.27672       -1.56981        2.76422
C          1.32353       -2.57267        2.18595
H          1.50395       -2.71084        1.10730
H          0.27201       -2.26002        2.29088
H          1.43194       -3.55110        2.67292
C          4.14449        0.26007        3.80513
H          4.86893        0.97735        4.19773
C          3.22668       -1.96439        3.71132
H          3.23792       -3.00626        4.04327
C          4.16017       -1.06734        4.22693
H          4.89616       -1.40675        4.95982
C         -1.94078        2.33145        1.06232
H         -2.09712        1.73882        1.96425
C         -1.59131        2.53640       -1.29838
H         -1.45514        2.09575       -2.28906
C         -1.89387        3.71324        1.19218
H         -1.99659        4.19326        2.16721
C         -1.55727        3.92439       -1.18746
H         -1.39987        4.52355       -2.08463
C         -1.70693        4.52585        0.06837
O         -1.65631        5.85329        0.28877
C         -1.44785        6.71033       -0.79938
H         -2.25355        6.62591       -1.54959
H         -1.44182        7.73178       -0.39882
H         -0.47996        6.51614       -1.29466
H         -3.23214        0.47925       -2.36650
H         -3.41603       -1.21557       -1.96886
C         -4.78075        0.07943       -0.91545
C         -5.07435        1.36571       -0.44020
H         -4.32068        2.15010       -0.53233
C         -5.76886       -0.92609       -0.82209
C         -5.54139       -2.31331       -1.35045
H         -4.67610       -2.79820       -0.87419
H         -5.35820       -2.30610       -2.43724
H         -6.41842       -2.94783       -1.16501
C         -6.30497        1.66520        0.13823
H         -6.50379        2.67637        0.50122
C         -7.00204       -0.60433       -0.24272
H         -7.76613       -1.38334       -0.17203
C         -7.27621        0.67236        0.24041
H         -8.24795        0.89073        0.68978
H         -1.71559       -0.52340        1.90205
H         -3.31485        0.10065        1.48663
C         -3.12725       -2.01974        1.28241
C         -2.46971       -3.09803        0.68287
H         -1.54255       -2.89647        0.14755
C         -4.32316       -2.25271        1.99479
C         -5.04898       -1.14427        2.70014
H         -5.34778       -0.34388        2.00590
H         -4.42201       -0.68596        3.48225
H         -5.96181       -1.52034        3.18173
C         -2.98033       -4.39199        0.74779
H         -2.44808       -5.21320        0.26185
C         -4.82586       -3.55763        2.04571
H         -5.75730       -3.73943        2.58899
C         -4.17247       -4.62210        1.42834
H         -4.59402       -5.62856        1.48442
