102
Cat318.ts34.5.log	Energy: -2609806.2728537
C         -0.36030        2.04031       -3.03397
H          0.09097        1.98896       -4.02893
H         -1.45455        1.99089       -3.03768
C          0.28443        2.80813       -2.03075
H          1.25548        3.26877       -2.23696
H         -0.32708        3.41528       -1.35327
H          0.21264        1.80460       -0.68933
Co         0.55377        0.80582       -1.72971
C         -2.65011        0.76697       -0.88150
C         -1.64034       -1.79820       -1.81394
C         -0.92377       -0.89281        0.86914
C          2.51146       -1.24859        0.14309
C          3.89379        0.81774       -1.28993
C          2.38261        1.41663        1.13408
P          2.24320        0.46921       -0.46704
P         -1.12380       -0.24886       -0.88831
C          1.15579       -0.09707       -3.07533
O          1.53330       -0.71229       -3.98038
C         -2.86635        1.71437        0.13065
H         -2.18135        1.77690        0.97613
C         -3.52989        0.76867       -1.97243
H         -3.36646        0.09156       -2.81243
C         -3.95324        2.58124        0.09323
H         -4.13277        3.30114        0.89338
C         -4.61949        1.63524       -2.03116
H         -5.30556        1.63292       -2.88004
C         -4.82647        2.52457       -0.98597
F         -5.87225        3.34947       -1.02531
H         -1.94640       -1.45659       -2.81397
H         -0.69219       -2.33434       -1.96569
C         -2.65137       -2.70193       -1.18202
C         -2.23199       -3.74771       -0.34557
H         -1.16326       -3.94485       -0.22104
C         -4.02664       -2.50895       -1.35532
H         -4.37700       -1.71092       -2.01218
C         -3.16211       -4.53503        0.32515
H         -2.82025       -5.33817        0.98221
C         -4.97714       -3.29289       -0.69167
C         -6.44163       -3.03230       -0.89468
H         -6.68917       -1.97984       -0.68516
H         -6.74098       -3.23379       -1.93573
H         -7.05900       -3.66312       -0.24007
C         -4.52718       -4.30441        0.16240
H         -5.25299       -4.92266        0.69736
H         -0.82009       -1.98340        0.76219
H          0.05980       -0.53036        1.19259
C         -1.94326       -0.57758        1.92158
C         -1.56917        0.14266        3.06347
H         -0.52282        0.42802        3.20361
C         -3.27942       -0.96332        1.78877
H         -3.58642       -1.52523        0.90569
C         -2.51640        0.48787        4.02468
H         -2.21155        1.04987        4.91112
C         -4.24442       -0.62384        2.74058
C         -5.67620       -1.01993        2.52557
H         -5.75109       -2.06145        2.17840
H         -6.27133       -0.91515        3.44374
H         -6.14098       -0.38704        1.75114
C         -3.84885        0.11442        3.86130
H         -4.59031        0.39277        4.61519
C          2.02239       -2.30804       -0.63071
H          1.48722       -2.08707       -1.55580
C          3.20329       -1.55235        1.32399
H          3.62453       -0.75749        1.94146
C          2.21486       -3.63356       -0.25036
H          1.84511       -4.46381       -0.85521
C          3.38953       -2.87122        1.72919
H          3.92361       -3.11581        2.64912
C          2.89385       -3.89678        0.93341
F          3.07899       -5.15918        1.31118
H          3.83253        0.27838       -2.24711
H          3.87225        1.89216       -1.52966
C          5.11096        0.42743       -0.51706
C          5.77167        1.33241        0.32534
H          5.44799        2.37564        0.36480
C          5.57704       -0.89120       -0.56848
H          5.07041       -1.60434       -1.22548
C          6.84894        0.91446        1.10239
H          7.36014        1.62993        1.75115
C          6.65071       -1.33166        0.21071
C          7.07686       -2.76969        0.16132
H          6.31167       -3.41671        0.62188
H          7.20662       -3.11472       -0.87579
H          8.02244       -2.93243        0.69712
C          7.28137       -0.40955        1.05257
H          8.12492       -0.73115        1.66935
H          1.80603        0.83987        1.87280
H          3.43546        1.40002        1.45646
C          1.85906        2.81699        1.06191
C          2.60952        3.85372        0.50001
H          3.62031        3.66032        0.13399
C          0.57231        3.10548        1.53196
H         -0.01825        2.30332        1.98225
C          2.07423        5.13673        0.40332
H          2.66902        5.94017       -0.03797
C          0.01848        4.38473        1.44491
C         -1.37256        4.65896        1.93790
H         -2.06457        4.80323        1.09232
H         -1.75703        3.82701        2.54549
H         -1.40942        5.57420        2.54791
C          0.78936        5.40156        0.86756
H          0.37865        6.41177        0.78753
