90
Cat348.ts34.5.log	Energy: -3212328.9564705
C          0.05269       -2.76952       -3.21373
H         -0.30356       -2.60997       -4.23524
H          1.08906       -3.12071       -3.16494
C         -0.86989       -3.21893       -2.23067
H         -1.93051       -3.30564       -2.48924
H         -0.55976       -3.99332       -1.51906
H         -0.45810       -2.28118       -0.93040
Co        -0.41733       -1.24765       -1.98839
C          1.69887       -0.92988        0.63657
C          2.95791       -1.45952       -1.93880
C          1.88120        1.20026       -1.39066
C         -1.87237        1.41076       -0.37664
C         -3.66365       -0.41821       -1.58381
C         -2.28564       -1.12759        0.88628
P         -1.96305       -0.38374       -0.78497
P          1.47500       -0.62006       -1.15558
C         -0.63174       -0.23805       -3.37743
O         -0.73658        0.43713       -4.31182
C          1.15717       -0.04350        1.57995
H          0.68847        0.88599        1.25334
C          2.25782       -2.12366        1.11024
H          2.63844       -2.86967        0.41039
C          1.20600       -0.31624        2.94331
H          0.79224        0.38870        3.66623
C          2.31950       -2.41048        2.47174
H          2.76263       -3.34224        2.82743
C          1.79698       -1.49894        3.38745
Cl         1.86602       -1.84521        5.08091
H          2.87050       -2.52720       -1.68628
H          2.72890       -1.39329       -3.01328
C          4.33106       -0.93207       -1.66509
C          4.88990        0.04378       -2.50383
H          4.33859        0.37171       -3.38919
C          5.09431       -1.36249       -0.56995
H          4.70408       -2.13213        0.09634
C          6.13776        0.60352       -2.24528
H          6.56802        1.36755       -2.89489
C          6.34695       -0.81890       -0.29836
H          6.93966       -1.15169        0.55553
C          6.85090        0.16890       -1.13559
F          8.04487        0.69734       -0.87720
H          2.58402        1.21649       -2.23873
H          0.94750        1.64405       -1.75841
C          2.40531        2.03526       -0.25856
C          1.65017        3.12668        0.18663
H          0.70578        3.35725       -0.30783
C          3.61362        1.76253        0.39492
H          4.22318        0.91566        0.08151
C          2.06560        3.92006        1.25299
H          1.46928        4.76875        1.59357
C          4.04767        2.54535        1.45992
H          4.98673        2.33275        1.97394
C          3.26501        3.61394        1.88169
F          3.67528        4.35833        2.90867
C         -2.01364        1.92810        0.91588
H         -2.17643        1.26564        1.76660
C         -1.69043        2.31648       -1.43316
H         -1.57643        1.95092       -2.45626
C         -1.95980        3.29939        1.15650
H         -2.05804        3.69196        2.16974
C         -1.65897        3.68948       -1.21302
H         -1.51662        4.38547       -2.04133
C         -1.78285        4.17502        0.08943
Cl        -1.67222        5.87594        0.38529
H         -3.50569        0.02655       -2.57812
H         -3.88368       -1.48284       -1.75641
C         -4.76053        0.27888       -0.84117
C         -5.56121       -0.39088        0.09414
H         -5.43393       -1.46416        0.25075
C         -4.98833        1.65040       -1.02893
H         -4.39336        2.19840       -1.76201
C         -6.53637        0.27648        0.83191
H         -7.16183       -0.24645        1.55748
C         -5.95605        2.33477       -0.30154
H         -6.13097        3.40210       -0.44760
C         -6.71670        1.63808        0.62940
F         -7.64345        2.28616        1.33285
H         -1.50463       -0.72039        1.54436
H         -3.25816       -0.76101        1.25184
C         -2.20136       -2.62434        0.91913
C         -3.20424       -3.44794        0.39339
H         -4.10376       -3.00724       -0.03934
C         -1.06885       -3.23899        1.46645
H         -0.27656       -2.61962        1.88842
C         -3.08282       -4.83510        0.40091
H         -3.86255       -5.47970       -0.00840
C         -0.92709       -4.62329        1.48123
H         -0.04412       -5.10032        1.91037
C         -1.93904       -5.40782        0.94277
F         -1.81457       -6.73379        0.95163
