88
Cat394.ts34.5.log	Energy: -2526148.8767285
C         -0.72440        1.50182       -3.29537
H         -0.67937        1.02731       -4.27927
H         -1.72689        1.82260       -2.99686
C          0.40655        2.22101       -2.83000
H          1.33361        2.20117       -3.41128
H          0.25931        3.17327       -2.30811
H          0.47391        1.72465       -1.23462
Co         0.21350        0.42095       -1.87759
C         -1.22682        0.34701        1.20060
O         -2.82318        0.85742       -0.97346
O         -1.89674       -1.54704       -0.62119
C          1.71023       -1.67184        0.35368
O          3.27259       -0.32034       -1.44834
O          2.24078        0.89529        0.57800
P          1.81730       -0.13957       -0.64647
P         -1.41443        0.05462       -0.59952
C          0.33142       -0.87736       -3.04021
O          0.36058       -1.71972       -3.82251
C         -0.95781       -0.74769        2.03254
H         -0.94814       -1.75112        1.60610
C         -1.17106        1.65739        1.72404
C         -1.39447        2.87780        0.88082
H         -2.46928        3.06798        0.73316
H         -0.93967        2.76838       -0.11438
H         -0.95386        3.76388        1.35708
C         -0.67537       -0.57064        3.38313
H         -0.46039       -1.43827        4.01082
C         -0.90383        1.80891        3.08936
H         -0.87600        2.81946        3.50659
C         -0.66099        0.71547        3.91661
H         -0.44881        0.87123        4.97724
C         -3.92647        1.20575       -0.24682
C         -4.32472        0.57657        0.93370
H         -3.75245       -0.25367        1.34259
C         -4.68411        2.25734       -0.77031
H         -4.34930        2.72797       -1.69677
C         -5.47687        1.01404        1.58464
H         -5.78336        0.51401        2.50634
C         -5.83509        2.68051       -0.11324
H         -6.42199        3.50164       -0.53191
C         -6.23647        2.06286        1.07145
H         -7.13928        2.39472        1.58851
C         -3.14820       -2.07418       -0.48324
C         -4.13524       -1.80950       -1.43550
H         -3.90001       -1.15666       -2.27674
C         -3.41659       -2.92337        0.59205
H         -2.62666       -3.13950        1.31243
C         -5.40214       -2.36467       -1.28299
H         -6.17621       -2.14315       -2.02142
C         -4.68622       -3.48099        0.72845
H         -4.89421       -4.14263        1.57290
C         -5.68620       -3.19638       -0.20006
H         -6.68278       -3.62781       -0.08472
C          0.96361       -2.67665       -0.27957
H          0.51949       -2.48157       -1.25486
C          2.25990       -1.91830        1.63616
C          3.06943       -0.94135        2.43656
H          2.43711       -0.11684        2.79625
H          3.87934       -0.49196        1.84887
H          3.50960       -1.44794        3.30624
C          0.74002       -3.91357        0.31413
H          0.14811       -4.66847       -0.20727
C          2.00962       -3.16985        2.21569
H          2.42438       -3.36958        3.20723
C          1.26269       -4.15687        1.57976
H          1.09415       -5.11625        2.07535
C          4.41689       -0.75984       -0.83049
C          4.67360       -2.12833       -0.74309
H          3.95234       -2.83188       -1.16143
C          5.32151        0.16681       -0.31022
H          5.10250        1.23290       -0.39123
C          5.83677       -2.56832       -0.11598
H          6.03468       -3.64027       -0.04259
C          6.48470       -0.28452        0.31006
H          7.19250        0.44102        0.71795
C          6.74315       -1.65090        0.41521
H          7.65367       -2.00086        0.90656
C          2.39352        2.24270        0.46978
C          2.08799        3.00564        1.59849
H          1.71735        2.49435        2.48777
C          2.86729        2.85934       -0.69157
H          3.11746        2.25346       -1.56349
C          2.24374        4.38781        1.55914
H          2.00224        4.98083        2.44474
C          3.00985        4.24587       -0.71986
H          3.37417        4.72516       -1.63171
C          2.69865        5.01622        0.39901
H          2.81459        6.10164        0.36942
