100
Cat397.ts34.5.log	Energy: -2624760.0094938
C         -0.12519        2.08982       -2.67386
H          0.93231        2.17592       -2.94051
H         -0.80484        1.95703       -3.51915
C         -0.60217        2.76235       -1.52235
H          0.07331        3.45558       -1.00880
H         -1.65405        3.06219       -1.47049
H         -0.17885        1.81646       -0.25686
Co        -0.50297        0.73177       -1.22079
C         -1.16115       -0.19889        1.99441
O         -2.99035        1.27716        0.73170
O         -2.64644       -1.18986       -0.02381
C          2.01155       -1.41241       -1.92595
O          2.60288        1.14969       -1.27886
O          1.80142       -0.42388        0.65181
P          1.44605        0.00364       -0.91020
P         -1.78405        0.18705        0.32280
C         -1.23172       -0.29519       -2.41872
O         -1.69372       -0.99266       -3.20856
C         -0.99861       -1.55673        2.30397
H         -1.35620       -2.31500        1.60704
C         -0.68539        0.77972        2.89000
C         -0.79392        2.25034        2.62225
H         -1.83088        2.59448        2.72973
H         -0.48309        2.50159        1.59680
H         -0.16490        2.82048        3.31934
C         -0.38702       -1.95922        3.48508
H         -0.26921       -3.02303        3.70167
C         -0.08823        0.35093        4.08092
H          0.27470        1.10601        4.78336
C          0.06939       -0.99770        4.38148
H          0.55414       -1.29619        5.31385
C         -3.76487        1.88457       -0.22570
C         -4.16989        1.21044       -1.37939
H         -3.88511        0.17014       -1.52991
C         -4.15529        3.21367        0.00817
C         -3.72415        3.93383        1.24785
H         -3.94571        3.34454        2.15061
H         -2.63855        4.11936        1.24333
H         -4.23249        4.90373        1.33319
C         -4.94767        1.86643       -2.33086
H         -5.25252        1.33148       -3.23301
C         -4.94782        3.84034       -0.95737
H         -5.25988        4.87394       -0.78417
C         -5.33741        3.18608       -2.12460
H         -5.95059        3.70486       -2.86455
C         -3.72681       -1.75887        0.60071
C         -4.31479       -1.24545        1.75570
H         -3.92278       -0.33724        2.21073
C         -4.21855       -2.92020       -0.02007
C         -3.56490       -3.43973       -1.26362
H         -3.54801       -2.68022       -2.06004
H         -2.51207       -3.70522       -1.08037
H         -4.08662       -4.33062       -1.63841
C         -5.41217       -1.90020        2.31273
H         -5.87216       -1.49609        3.21739
C         -5.31841       -3.55127        0.56401
H         -5.71292       -4.45555        0.09250
C         -5.91654       -3.05414        1.72144
H         -6.77680       -3.56739        2.15649
C          2.86318       -1.17141       -3.01082
H          3.27006       -0.16888       -3.15596
C          1.43111       -2.69094       -1.76035
C          0.45739       -2.98842       -0.65898
H         -0.40169       -2.30258       -0.70078
H          0.90428       -2.85988        0.33804
H          0.08055       -4.01731       -0.73756
C          3.19512       -2.18781       -3.90244
H          3.86854       -1.98213       -4.73756
C          1.78589       -3.69807       -2.66312
H          1.35266       -4.69367       -2.53419
C          2.66058       -3.45982       -3.72093
H          2.91312       -4.26854       -4.41083
C          3.86628        1.38286       -0.80214
C          4.87353        0.41907       -0.83056
H          4.65832       -0.57951       -1.20851
C          4.11419        2.67854       -0.32038
C          3.01550        3.69600       -0.31437
H          2.61464        3.85615       -1.32716
H          2.17121        3.35986        0.30858
H          3.37057        4.65902        0.07693
C          6.13833        0.72667       -0.33808
H          6.91497       -0.04099       -0.34015
C          5.39698        2.96440        0.15488
H          5.60341        3.96846        0.53612
C          6.40350        2.00049        0.15882
H          7.39458        2.24665        0.54613
C          2.96450       -0.83361        1.25587
C          3.54873       -2.06067        0.93603
H          3.10213       -2.68565        0.16434
C          3.51787       -0.00268        2.24268
C          2.90775        1.31979        2.59158
H          3.60169        2.13821        2.34707
H          1.97200        1.47907        2.04437
H          2.68648        1.37569        3.66796
C          4.71692       -2.46221        1.57651
H          5.17368       -3.41903        1.31301
C          4.68811       -0.43624        2.87304
H          5.13808        0.20721        3.63431
C          5.29345       -1.64641        2.54759
H          6.21131       -1.95349        3.05388
