104
Cat380.ts34.5.log	Energy: -2250892.9692099
C          0.44448        2.89016        1.32427
H          0.39496        3.83330        0.77196
H         -0.25205        2.85239        2.17079
C          1.71240        2.24724        1.46005
H          2.57905        2.65049        0.92684
H          1.99530        1.85861        2.44732
H          1.28535        0.68363        1.24719
Co         0.50409        1.27783        0.14200
C         -1.08443       -1.38632        1.61280
C         -2.49205        1.14564        1.84744
C         -2.42182       -0.20269       -0.65987
C          0.54041       -1.15881       -2.26474
C          3.00134        0.23328       -1.98668
C          2.27590       -1.60658        0.11374
P          1.54547       -0.29075       -0.95453
P         -1.30972        0.23182        0.75013
C          0.04568        2.29555       -1.18409
O         -0.31608        3.01542       -2.01621
C         -1.38282       -2.58571        0.94847
H         -1.82838       -2.55871       -0.04651
C         -0.47020       -1.45905        2.88630
C         -0.09586       -0.23547        3.67051
H         -0.94612        0.13574        4.26492
H          0.22405        0.57534        3.00176
H          0.72354       -0.45347        4.37018
C         -1.10239       -3.82849        1.51259
H         -1.34974       -4.74071        0.96433
C         -0.19081       -2.71612        3.43381
H          0.29143       -2.76311        4.41456
C         -0.50096       -3.89715        2.76482
H         -0.26814       -4.86315        3.21877
H         -3.30098        0.46951        2.17007
H         -1.94229        1.43717        2.75423
C         -3.04678        2.39433        1.17384
H         -2.21612        2.95529        0.71344
H         -3.71351        2.11047        0.34198
C         -3.80484        3.30227        2.13175
H         -3.13127        3.60393        2.95493
H         -4.62494        2.73492        2.60912
C         -4.37149        4.54725        1.46389
H         -3.54758        5.10223        0.98166
H         -5.04401        4.24206        0.64257
C         -5.11600        5.46264        2.42214
H         -5.51325        6.35213        1.90997
H         -4.45676        5.81285        3.23284
H         -5.96598        4.94261        2.89304
H         -2.47773        0.72069       -1.25960
H         -1.85678       -0.90052       -1.29660
C         -3.81706       -0.74034       -0.37261
H         -3.77623       -1.53911        0.38719
H         -4.44330        0.05409        0.06723
C         -4.49365       -1.27537       -1.62794
H         -3.86925       -2.07913       -2.06021
H         -4.51776       -0.48084       -2.39596
C         -5.90304       -1.79802       -1.39118
H         -5.87083       -2.58503       -0.61672
H         -6.52306       -0.98870       -0.96617
C         -6.56329       -2.34251       -2.64757
H         -7.57963       -2.71423       -2.44690
H         -5.98212       -3.17625       -3.07390
H         -6.64051       -1.56632       -3.42602
C         -0.01413       -0.24077       -3.17480
H          0.23181        0.81769       -3.07957
C          0.21048       -2.52686       -2.41658
C          0.79009       -3.66405       -1.62042
H          0.64901       -3.55012       -0.53986
H          1.86895       -3.77416       -1.80636
H          0.31276       -4.60760       -1.91828
C         -0.89627       -0.61494       -4.17934
H         -1.30371        0.14068       -4.85450
C         -0.70845       -2.87885       -3.42056
H         -0.97740       -3.93374       -3.52294
C         -1.26903       -1.95088       -4.28902
H         -1.98243       -2.27328       -5.05100
H          3.65243       -0.64572       -2.13864
H          2.60188        0.49789       -2.97885
C          3.77582        1.41383       -1.42284
H          3.07161        2.25033       -1.27998
H          4.15809        1.17569       -0.41591
C          4.93175        1.85123       -2.31016
H          4.54776        2.08767       -3.31946
H          5.63330        1.00792       -2.44854
C          5.68877        3.05358       -1.76319
H          4.98136        3.89011       -1.62419
H          6.06622        2.81313       -0.75327
C          6.84167        3.49817       -2.64838
H          7.36759        4.36789       -2.22611
H          6.48763        3.77962       -3.65326
H          7.58183        2.69166       -2.77608
H          1.42885       -2.06068        0.65129
H          2.72790       -2.38250       -0.51896
C          3.30057       -1.12353        1.13071
H          4.22551       -0.80595        0.61953
H          2.91948       -0.23132        1.65207
C          3.62967       -2.19408        2.16223
H          4.03116       -3.09018        1.65450
H          2.69127       -2.52036        2.64617
C          4.61281       -1.72868        3.22640
H          5.55117       -1.40635        2.74106
H          4.20782       -0.82581        3.71765
C          4.91407       -2.78900        4.27306
H          5.62253       -2.42420        5.03217
H          5.35250       -3.69001        3.81446
H          3.99659       -3.10282        4.79700
