98
Cat315.ts34.5.log	Energy: -2326088.6567217
C          0.61658        3.47824       -1.14402
H          0.69817        4.33896       -0.47373
H          1.48348        3.36117       -1.80433
C         -0.67122        3.12539       -1.64341
H         -1.55473        3.66347       -1.28456
H         -0.76619        2.85941       -2.70359
H         -0.60833        1.47061       -1.51839
Co        -0.02628        1.82894       -0.20824
C          1.04498       -0.97513       -1.71244
C          3.06907        1.03875       -1.52045
C          2.30710       -0.43430        0.82310
C         -1.06678       -0.73051        1.71593
C         -3.03664        1.28796        1.36590
C         -2.39609       -0.47241       -0.83528
P         -1.60003        0.52906        0.48635
P          1.56759        0.42107       -0.63282
C          0.30511        2.53912        1.33847
O          0.56673        2.99079        2.37183
C          0.91605       -2.29675       -1.26915
H          1.26421       -2.58093       -0.27579
C          0.58069       -0.66690       -3.00172
H          0.64837        0.36121       -3.36835
C          0.30818       -3.27165       -2.06222
H          0.18844       -4.29895       -1.71243
C         -0.01095       -1.62823       -3.81238
H         -0.38225       -1.38858       -4.81050
C         -0.15786       -2.92205       -3.32100
F         -0.76722       -3.83828       -4.07218
H          2.71526        1.50365       -2.45661
H          3.70063        0.18356       -1.80725
C          3.83261        2.05956       -0.68643
H          3.10979        2.75650       -0.23008
H          4.33287        1.54981        0.15663
C          4.87806        2.86448       -1.46100
H          4.35058        3.37351       -2.29044
C          5.48673        3.93816       -0.56694
H          4.71200        4.60153       -0.15224
H          6.20697        4.56178       -1.11897
H          6.02353        3.48243        0.28200
C          5.96002        1.97742       -2.06656
H          6.70761        2.57599       -2.60989
H          5.54624        1.24388       -2.77477
H          6.49165        1.41804       -1.27788
H          1.47729       -0.99609        1.27901
H          2.52239        0.37151        1.54242
C          3.51795       -1.33661        0.61267
H          3.44526       -1.85672       -0.35747
H          4.43605       -0.72576        0.55113
C          3.68969       -2.38951        1.71218
H          2.76722       -3.00298        1.72056
C          4.86175       -3.31058        1.39826
H          4.74387       -3.79275        0.41503
H          4.96301       -4.10476        2.15413
H          5.80920       -2.74636        1.38040
C          3.83117       -1.76632        3.09594
H          3.92491       -2.54254        3.87083
H          2.96056       -1.14656        3.35648
H          4.72867       -1.12692        3.14858
C         -0.97825       -2.09643        1.42072
H         -1.34379       -2.48009        0.46805
C         -0.57795       -0.28935        2.95633
H         -0.60932        0.77194        3.21267
C         -0.38964       -2.99263        2.31269
H         -0.30383       -4.05594        2.08068
C          0.00177       -1.17161        3.86113
H          0.39718       -0.82949        4.81916
C          0.10476       -2.51542        3.51838
F          0.70030       -3.35858        4.35939
H         -2.64096        1.70716        2.30599
H         -3.74409        0.48962        1.64057
C         -3.69242        2.38801        0.54727
H         -2.91032        3.11605        0.27838
H         -4.06457        1.97698       -0.41000
C         -4.84286        3.11467        1.24641
H         -4.45434        3.49641        2.20950
C         -5.29102        4.31100        0.41484
H         -4.45601        5.00301        0.22444
H         -6.09045        4.87596        0.91876
H         -5.68151        3.98325       -0.56333
C         -6.01676        2.18877        1.54572
H         -6.83686        2.73312        2.03898
H         -5.73169        1.35545        2.20533
H         -6.41879        1.75585        0.61374
H         -1.58477       -1.09626       -1.24462
H         -2.62063        0.24877       -1.63609
C         -3.61703       -1.31411       -0.48432
H         -3.53737       -1.69916        0.54641
H         -4.52234       -0.68102       -0.49445
C         -3.82214       -2.50356       -1.42786
H         -2.91618       -3.13660       -1.35128
C         -5.01686       -3.33983       -0.98766
H         -4.90850       -3.68097        0.05392
H         -5.14049       -4.23008       -1.62349
H         -5.94936       -2.75442       -1.05065
C         -3.95209       -2.07528       -2.88502
H         -4.08164       -2.94866       -3.54233
H         -3.06027       -1.53377       -3.23406
H         -4.82580       -1.41622       -3.02462
