100
Cat368.ts34.5.log	Energy: -2624762.3758885
C         -0.32623        1.45944       -3.51350
H         -0.66949        0.89777       -4.38641
H         -1.04770        2.20549       -3.16267
C          1.05570        1.70479       -3.33766
H          1.76920        1.29760       -4.06036
H          1.37275        2.65900       -2.90500
H          1.33671        1.25229       -1.63050
Co         0.41723        0.20236       -2.10094
C         -1.08701        2.61261       -0.38458
O         -2.76393        0.91896       -1.36354
O         -1.34407        0.02306        0.58534
C          1.12718       -2.45498       -0.16290
O          3.18904       -1.08079       -0.79493
O          1.55310        0.16843        0.72207
P          1.56153       -0.76317       -0.65452
P         -1.17040        0.85036       -0.85777
C          0.24802       -1.18668       -3.15848
O          0.13583       -2.07720       -3.87961
C          0.14452        3.09997        0.07236
H          1.00154        2.42467        0.12884
C         -2.17900        3.48329       -0.44319
H         -3.14120        3.11078       -0.79431
C          0.26807        4.42063        0.48797
H          1.23293        4.77887        0.85850
C         -2.04127        4.80874       -0.03980
H         -2.90611        5.47630       -0.08907
C         -0.82117        5.30114        0.43667
C         -0.67134        6.73519        0.84968
H         -0.28097        7.34268        0.01598
H         -1.63413        7.17194        1.15084
H          0.03396        6.84176        1.68683
C         -3.56811       -0.16911       -1.56254
C         -3.16300       -1.24988       -2.34449
H         -2.18663       -1.22259       -2.82434
C         -4.83707       -0.13813       -0.95907
C         -5.27059        1.05149       -0.15926
H         -4.53940        1.29772        0.62507
H         -5.37030        1.94192       -0.80099
H         -6.24125        0.86756        0.32035
C         -4.00864       -2.34682       -2.50210
H         -3.68118       -3.19314       -3.11042
C         -5.66495       -1.24907       -1.14080
H         -6.65221       -1.24587       -0.67071
C         -5.26055       -2.35179       -1.89287
H         -5.92859       -3.20800       -2.00953
C         -2.20366        0.28035        1.62606
C         -2.15410        1.48638        2.32636
H         -1.41921        2.23924        2.04882
C         -3.08467       -0.74495        2.01334
C         -3.06180       -2.08508        1.34838
H         -3.92490       -2.68847        1.65999
H         -3.07640       -2.00395        0.25350
H         -2.14585       -2.63577        1.61490
C         -3.03362        1.71617        3.38158
H         -2.99143        2.66697        3.91766
C         -3.95487       -0.48403        3.07633
H         -4.65382       -1.26851        3.37922
C         -3.94883        0.73473        3.75099
H         -4.64573        0.90860        4.57389
C          2.02720       -3.30170        0.49811
H          3.03354       -2.94888        0.72323
C         -0.15710       -2.92128       -0.44980
H         -0.86855       -2.26398       -0.95160
C          1.63615       -4.58107        0.86924
H          2.34598       -5.22806        1.39204
C         -0.53822       -4.20783       -0.08049
H         -1.54937       -4.55216       -0.31370
C          0.34842       -5.05936        0.58550
C         -0.05085       -6.45456        0.96320
H         -1.14336       -6.57331        0.97396
H          0.35491       -7.18426        0.24283
H          0.33738       -6.72910        1.95530
C          4.18636       -0.17383       -1.02794
C          4.15990        0.66272       -2.14109
H          3.31255        0.59375       -2.82004
C          5.26837       -0.16660       -0.13226
C          5.29972       -1.11045        1.03026
H          4.40788       -1.00267        1.66718
H          5.32474       -2.15679        0.68628
H          6.18716       -0.93598        1.65346
C          5.20477        1.55708       -2.35993
H          5.17849        2.21456       -3.23209
C          6.30636        0.73647       -0.38084
H          7.15587        0.75821        0.30732
C          6.27923        1.60003       -1.47469
H          7.10343        2.29741       -1.64000
C          1.67786       -0.14446        2.04785
C          0.87291       -1.10988        2.65300
H          0.13797       -1.64364        2.05397
C          2.58051        0.62776        2.79889
C          3.34500        1.74708        2.16064
H          4.15154        2.09803        2.81895
H          3.78364        1.45499        1.19671
H          2.67923        2.60293        1.95988
C          1.00180       -1.36023        4.01610
H          0.36801       -2.11669        4.48416
C          2.68997        0.34971        4.16494
H          3.39395        0.93604        4.76204
C          1.92107       -0.63953        4.77435
H          2.02813       -0.83355        5.84387
