50
Cat320.ts34.5.log	Energy: -2383848.3693093
C          4.37425       -0.12745       -1.02958
H          4.48667       -0.61609       -2.00174
H          4.77826        0.89238       -1.01407
C          4.50065       -0.92089        0.15332
H          4.59087       -2.00873        0.05978
H          5.10861       -0.53281        0.98004
H          3.31055       -0.29548        1.06038
Co         2.56997       -0.40509       -0.22563
C          0.10395        1.89077       -0.08114
C          2.56782        2.78143        1.09728
C          2.28923        2.62425       -1.71101
C         -0.55743       -1.54708        0.64833
C          1.63946       -3.11992        1.52719
C          1.10326       -0.63996        2.79115
P          1.20999       -1.38082        1.11745
P          1.92105        1.64805       -0.19548
C          1.96575       -1.05922       -1.71486
O          1.55824       -1.41778       -2.73755
C         -0.69351        1.30354       -1.07686
H         -0.22435        0.74204       -1.88921
C         -0.53361        2.55966        0.96863
H          0.05088        3.03178        1.76128
C         -2.07804        1.39716       -1.04132
H         -2.69286        0.93035       -1.81220
C         -1.92523        2.64214        1.03079
H         -2.41938        3.15640        1.85691
C         -2.68827        2.06144        0.02329
Cl        -4.41760        2.12168        0.11238
H          2.33113        2.38703        2.09590
H          3.66392        2.79158        1.00117
H          2.19058        3.81189        1.00479
H          1.90058        3.65172       -1.64658
H          3.37826        2.64777       -1.86205
H          1.84251        2.11830       -2.57852
C         -0.88040       -2.22183       -0.53772
H         -0.09206       -2.65688       -1.15558
C         -1.59885       -0.98887        1.39735
H         -1.39156       -0.44276        2.31827
C         -2.19704       -2.32806       -0.97015
H         -2.44001       -2.84560       -1.89952
C         -2.92260       -1.08377        0.97548
H         -3.72661       -0.61799        1.54665
C         -3.21373       -1.74656       -0.21274
Cl        -4.84939       -1.82109       -0.77499
H          1.60276       -3.72198        0.60847
H          2.67161       -3.14447        1.90691
H          0.95452       -3.54948        2.27390
H          0.75234        0.39910        2.71161
H          0.43864       -1.20248        3.46354
H          2.11839       -0.62506        3.21254
