96
Cat363.ts34.5.log	Energy: -2436014.7546085
C         -0.78363       -0.20307        3.52192
H         -0.42206        0.52907        4.24999
H         -1.86191       -0.38637        3.57210
C          0.07721       -1.25832        3.13053
H          1.11198       -1.28861        3.48941
H         -0.35007       -2.26028        3.00363
H         -0.12412       -1.29095        1.44445
Co        -0.07312        0.16257        1.66970
C         -1.82357       -1.30163       -0.76261
C         -3.47578        0.03840        1.18369
C         -2.17636        1.54869       -0.74151
C          2.06220        1.43489       -0.62988
C          3.24754       -0.21513        1.36539
C          1.81174       -1.42622       -0.75121
P          1.67183       -0.01378        0.42458
P         -1.81439        0.13054        0.38371
C          0.22503        1.80457        2.14766
O          0.40346        2.89626        2.48291
C         -1.46303       -1.19049       -2.10940
H         -1.29219       -0.20452       -2.54691
C         -2.03994       -2.58524       -0.24411
H         -2.29979       -2.70714        0.81138
C         -1.32351       -2.32230       -2.90713
H         -1.02269       -2.20533       -3.95196
C         -1.93131       -3.71109       -1.05375
H         -2.12357       -4.69986       -0.62775
C         -1.56267       -3.60291       -2.39945
C         -1.39940       -4.81357       -3.26915
H         -1.74033       -5.72698       -2.76158
H         -1.96600       -4.71517       -4.20807
H         -0.34112       -4.95369       -3.54551
C         -3.70405        0.92546        2.24216
H         -2.89651        1.58168        2.57762
C         -4.51732       -0.79223        0.75834
H         -4.35618       -1.47953       -0.07605
C         -4.95434        0.97700        2.85200
H         -5.12981        1.67773        3.67209
C         -5.77484       -0.76131        1.37127
C         -6.87333       -1.68021        0.91915
H         -7.83531       -1.15095        0.84299
H         -6.64865       -2.12388       -0.06114
H         -7.01521       -2.50858        1.63306
C         -5.97995        0.13710        2.42448
H         -6.95743        0.18016        2.91348
C         -3.22263        1.49504       -1.67436
H         -3.82778        0.59004       -1.76768
C         -1.43297        2.72080       -0.62324
H         -0.61955        2.76606        0.10127
C         -3.48844        2.59544       -2.48020
H         -4.29755        2.55004       -3.21358
C         -1.70198        3.84724       -1.41310
C         -0.90329        5.10354       -1.22664
H         -1.27642        5.67998       -0.36398
H          0.15370        4.87251       -1.02876
H         -0.96042        5.75579       -2.11037
C         -2.73249        3.76302       -2.35104
H         -2.95364        4.62492       -2.98725
C          3.03102        2.37428       -0.26794
H          3.63648        2.21583        0.62717
C          1.30066        1.67549       -1.78194
H          0.52197        0.96833       -2.07375
C          3.23736        3.51449       -1.04395
H          4.00047        4.23635       -0.73998
C          1.52229        2.80414       -2.56006
H          0.91244        2.96506       -3.45348
C          2.49467        3.74911       -2.20437
C          2.70495        4.98041       -3.03561
H          2.83455        4.72896       -4.09962
H          1.83498        5.65437       -2.96765
H          3.58984        5.54347       -2.70768
C          3.30178        0.23523        2.68617
H          2.40480        0.66348        3.13944
C          4.39291       -0.77602        0.78708
H          4.35356       -1.13953       -0.24302
C          4.49292        0.14139        3.40600
H          4.53395        0.50127        4.43706
C          5.58969       -0.88613        1.49841
C          6.80861       -1.50005        0.87241
H          7.09594       -2.42920        1.39061
H          6.63613       -1.74551       -0.18469
H          7.67275       -0.81943        0.92725
C          5.62402       -0.41528        2.81865
H          6.55211       -0.49204        3.39267
C          2.37670       -1.31793       -2.02614
H          2.70839       -0.34841       -2.40131
C          1.41374       -2.68777       -0.29563
H          0.96791       -2.77922        0.69798
C          2.52557       -2.45416       -2.82082
H          2.96135       -2.36147       -3.81886
C          1.57617       -3.83754       -1.07008
C          1.18226       -5.18464       -0.54005
H          2.07216       -5.78257       -0.28313
H          0.56767       -5.09304        0.36590
H          0.60944       -5.75823       -1.28417
C          2.13341       -3.70209       -2.34786
H          2.26488       -4.58828       -2.97582
