96
Cat392.ts34.5.log	Energy: -2436012.2021384
C         -0.42974       -0.74456       -3.11606
H         -1.47201       -0.57190       -3.39846
H          0.30805       -0.34951       -3.82020
C         -0.09597       -1.83627       -2.31054
H         -0.88330       -2.53687       -2.01249
H          0.89936       -2.28334       -2.39702
H         -0.01120       -1.40170       -0.50959
Co        -0.05156       -0.09965       -1.19236
C          2.22551       -0.90741        1.29189
C          3.31355       -0.52399       -1.32848
C          2.45070        1.72014        0.17023
C         -2.35272        1.65050        0.71844
C         -3.33154       -0.11288       -1.36705
C         -2.45111       -1.11763        1.15002
P         -1.94684        0.07363       -0.16369
P          1.89462        0.01817       -0.27914
C         -0.05838        1.47869       -1.90269
O         -0.10526        2.51777       -2.40426
C          2.45964       -0.18535        2.47041
H          2.49776        0.90420        2.42843
C          2.20012       -2.32182        1.35187
C          1.95665       -3.20191        0.15989
H          2.33496       -4.21637        0.34845
H          2.43834       -2.82212       -0.75000
H          0.88136       -3.28704       -0.06277
C          2.64674       -0.82087        3.69461
H          2.82120       -0.22581        4.59405
C          2.41363       -2.93986        2.59050
H          2.41612       -4.03282        2.63190
C          2.62463       -2.20998        3.75670
H          2.78174       -2.72755        4.70611
C          3.20832       -0.31048       -2.70440
H          2.29392        0.13380       -3.10393
C          4.48157       -1.10085       -0.81405
H          4.56525       -1.27655        0.26244
C          4.26262       -0.65906       -3.54695
H          4.17917       -0.48562       -4.62267
C          5.54233       -1.46670       -1.64711
C          6.78554       -2.09490       -1.08622
H          7.68176       -1.51035       -1.34762
H          6.73814       -2.17062        0.00904
H          6.93434       -3.10996       -1.48815
C          5.41636       -1.23477       -3.02374
H          6.23543       -1.51403       -3.69282
C          3.80061        2.08999        0.20720
H          4.57754        1.36511       -0.04227
C          1.47671        2.67511        0.47455
H          0.42372        2.38972        0.43159
C          4.15165        3.39358        0.54685
H          5.20542        3.68300        0.56514
C          1.81350        3.98990        0.81349
C          0.74183        4.99174        1.12903
H          1.06425        6.01456        0.88562
H         -0.18222        4.77352        0.57547
H          0.48399        4.97183        2.20072
C          3.16839        4.33529        0.84529
H          3.45656        5.36075        1.09385
C         -3.27320        2.57124        0.20231
H         -3.80800        2.34343       -0.72003
C         -1.69406        1.94609        1.93575
C         -0.72448        1.00016        2.57652
H         -0.15469        0.43424        1.82622
H         -1.24604        0.25748        3.20112
H         -0.01236        1.54120        3.21473
C         -3.53944        3.77369        0.85272
H         -4.26159        4.47255        0.42408
C         -1.98278        3.15680        2.57490
H         -1.47238        3.38274        3.51551
C         -2.89071        4.06985        2.04747
H         -3.09019        5.00868        2.56970
C         -3.39016        0.76009       -2.46712
H         -2.66524        1.57150       -2.56444
C         -4.23922       -1.17376       -1.30918
H         -4.19705       -1.87466       -0.47254
C         -4.36612        0.59365       -3.44258
H         -4.41340        1.28908       -4.28419
C         -5.21273       -1.36807       -2.29915
C         -6.15024       -2.53787       -2.21465
H         -5.64404       -3.47025       -2.51518
H         -6.51530       -2.68578       -1.18720
H         -7.02072       -2.40689       -2.87296
C         -5.27337       -0.46309       -3.36061
H         -6.03275       -0.59075       -4.13691
C         -3.62832       -0.90126        1.88151
H         -4.25475       -0.03307        1.66224
C         -1.65696       -2.21853        1.45738
H         -0.72359       -2.36023        0.90781
C         -3.99030       -1.78775        2.88903
H         -4.90843       -1.61940        3.45738
C         -2.00149       -3.11824        2.47489
C         -1.09465       -4.26606        2.80882
H         -0.74913       -4.78222        1.90022
H         -0.19511       -3.90647        3.33442
H         -1.59337       -5.00287        3.45413
C         -3.18307       -2.88844        3.18316
H         -3.47327       -3.57603        3.98260
