84
Cat355.ts34.5.log	Energy: -2242459.2527899
C         -1.46258        0.73733       -2.92168
H         -1.08376        0.40896       -3.89368
H         -2.47240        0.37642       -2.69572
C         -1.05657        2.00333       -2.42842
H         -0.33680        2.59752       -2.99872
H         -1.79425        2.61689       -1.89877
H         -0.65609        1.64968       -0.79760
Co        -0.07837        0.47565       -1.47437
C         -2.95379        0.00895        0.17087
O         -2.03506       -2.11850       -1.00077
O         -0.77419       -1.32229        1.09083
C          2.75598       -0.16821        0.27554
O          2.42394        2.29987       -0.43437
O          0.78986        1.42872        1.32455
P          1.43285        1.01606       -0.13346
P         -1.37660       -0.75248       -0.34135
C          0.95551       -0.45929       -2.52588
O          1.61444       -1.11436       -3.20881
C         -2.87757        1.21481        0.88294
H         -1.89447        1.63370        1.12233
C         -4.20912       -0.52565       -0.12313
H         -4.26988       -1.46338       -0.67832
C         -4.03556        1.85650        1.30357
H         -3.95993        2.78987        1.86910
C         -5.36663        0.13001        0.29583
H         -6.34398       -0.30069        0.05970
C         -5.30257        1.32764        1.01407
C         -6.54782        2.04633        1.44360
H         -6.74111        2.91895        0.79765
H         -7.43034        1.39342        1.38997
H         -6.46019        2.42142        2.47452
C         -1.22289       -3.02892       -1.74550
H         -0.16015       -2.76434       -1.59725
C         -1.55679       -2.90803       -3.21795
H         -1.36819       -1.88702       -3.57220
H         -2.61844       -3.14641       -3.38719
H         -0.94199       -3.59947       -3.81311
C         -1.46866       -4.42344       -1.20475
H         -1.20718       -4.48674       -0.13936
H         -2.53061       -4.69268       -1.31419
H         -0.86575       -5.16236       -1.75340
C         -1.48176       -2.19848        1.97218
H         -2.28452       -2.69749        1.40085
C         -2.09046       -1.41760        3.12159
H         -2.82723       -0.68720        2.76336
H         -1.30452       -0.87730        3.67043
H         -2.59451       -2.10161        3.82124
C         -0.48638       -3.23836        2.45018
H         -0.05403       -3.78780        1.60117
H          0.33781       -2.75163        2.99425
H         -0.96954       -3.96265        3.12303
C          4.10824        0.18297        0.31839
H          4.39941        1.20958        0.09119
C          2.39079       -1.49294        0.54769
H          1.33435       -1.76876        0.52967
C          5.07084       -0.77062        0.64224
H          6.12488       -0.48008        0.67355
C          3.35807       -2.43571        0.87455
H          3.05320       -3.46305        1.09483
C          4.71619       -2.09383        0.92524
C          5.75752       -3.12656        1.24141
H          5.40690       -3.82958        2.01158
H          6.00224       -3.72197        0.34586
H          6.69076       -2.66546        1.59477
C          1.96856        3.44772       -1.14967
H          0.86792        3.49944       -1.07582
C          2.36454        3.30938       -2.60579
H          1.92453        2.39252       -3.02368
H          3.45941        3.24140       -2.69751
H          2.01579        4.17161       -3.19428
C          2.56816        4.66711       -0.48092
H          2.25744        4.72768        0.57190
H          3.66757        4.61859       -0.51216
H          2.24734        5.58692       -0.99242
C          1.58860        1.78614        2.45394
H          2.61758        1.99716        2.11256
C          1.60829        0.63499        3.44009
H          2.04609       -0.26281        2.98307
H          0.58248        0.39514        3.75733
H          2.19979        0.89745        4.33026
C          0.99636        3.05282        3.03845
H          0.98368        3.85512        2.28687
H         -0.03977        2.87222        3.36459
H          1.57969        3.39495        3.90646
