74
Cat323.ts34.5.log	Energy: -2581033.6787176
C          0.13500       -3.95660       -0.37952
H         -0.74206       -4.60561       -0.45781
H          0.85623       -4.10913       -1.18915
C          0.62013       -3.62466        0.91545
H          0.07630       -3.96420        1.80323
H          1.70497       -3.63230        1.08107
H          0.93607       -1.97738        0.76855
Co        -0.34896       -2.05427        0.05680
C          1.95253        0.23755       -0.66885
C          1.84804       -1.92132       -2.56606
C         -0.23209        0.27852       -2.56401
C         -1.64515        0.94651        0.69080
C         -2.45334       -1.08510        2.53595
C          0.33951        0.14215        2.64140
P         -0.97176       -0.56020        1.51097
P          0.72901       -0.89184       -1.46262
C         -1.96594       -2.42106       -0.42970
O         -3.04953       -2.68925       -0.74197
C          1.86919        1.63409       -0.67246
H          1.09655        2.14072       -1.24997
C          2.97545       -0.34846        0.09636
H          3.06660       -1.43739        0.13284
C          2.74649        2.41875        0.07750
H          2.66030        3.50684        0.07516
C          3.86719        0.41569        0.83714
H          4.65283       -0.05606        1.42947
C          3.73875        1.80616        0.83566
Cl         4.82089        2.76962        1.78418
H          2.24884       -2.64506       -1.83333
C          1.01360       -2.71072       -3.57013
H          1.60844       -3.53162       -4.00140
H          0.11741       -3.14524       -3.10347
H          0.68742       -2.07165       -4.40447
C          3.03620       -1.23611       -3.22984
H          3.63806       -0.65731       -2.51509
H          3.69507       -1.99618       -3.68163
H          2.72454       -0.55671       -4.03409
H         -0.56726        1.02807       -1.82560
C          0.55021        0.99042       -3.66363
H         -0.04820        1.82383       -4.06684
H          1.50914        1.40166       -3.31952
H          0.75999        0.31023       -4.50251
C         -1.49676       -0.35606       -3.13311
H         -2.09071       -0.86177       -2.36325
H         -2.12692        0.42575       -3.58657
H         -1.26911       -1.09265       -3.91705
C         -2.81558        0.81483       -0.07498
H         -3.34642       -0.13882       -0.10853
C         -0.99817        2.18800        0.68096
H         -0.08611        2.34257        1.25656
C         -3.31353        1.86854       -0.83123
H         -4.21879        1.74734       -1.42808
C         -1.47937        3.25299       -0.07959
H         -0.95920        4.21249       -0.08581
C         -2.63249        3.08622       -0.84065
Cl        -3.22467        4.39503       -1.80671
H         -3.12943       -1.42768        1.73326
C         -2.11926       -2.31046        3.37717
H         -3.04032       -2.76228        3.77763
H         -1.59964       -3.06740        2.77305
H         -1.48024       -2.05229        4.23569
C         -3.18984       -0.01569        3.33256
H         -3.35757        0.89960        2.74641
H         -4.17683       -0.39992        3.63775
H         -2.65329        0.26045        4.24996
H          0.97823        0.67382        1.91341
C         -0.13692        1.13395        3.69939
H          0.72338        1.70432        4.08541
H         -0.87661        1.85392        3.32436
H         -0.58529        0.60866        4.55517
C          1.21661       -0.92856        3.28173
H          1.64684       -1.60829        2.53633
H          2.04875       -0.44542        3.81794
H          0.65890       -1.53475        4.01090
