94
Cat300.ts34.5.log	Energy: -2699863.8560249
C         -0.86022       -0.40274        3.38560
H         -1.92395       -0.14504        3.43148
H         -0.59738       -1.29065        3.96807
C          0.09919        0.63322        3.25511
H         -0.23838        1.67452        3.32563
H          1.11106        0.50037        3.65234
H          0.00128        1.01696        1.62113
Co        -0.06454       -0.45388        1.53395
C          1.54781        1.40670       -0.78843
C          3.12894        0.47741        1.39594
C          2.42544       -1.32053       -0.68113
C         -1.91820       -1.10071       -1.31087
C         -3.43735       -0.65069        1.02996
C         -2.15854        1.54801       -0.24819
P         -1.82836       -0.18060        0.28297
P          1.68687       -0.01790        0.37386
C          0.17470       -2.16470        1.72214
O          0.28842       -3.30245        1.88711
C          1.84197        1.31255       -2.15294
H          2.24212        0.38065       -2.55879
C          1.05271        2.62317       -0.29492
H          0.81129        2.71978        0.76601
C          1.61312        2.38758       -3.01320
H          1.81755        2.31681       -4.08305
C          0.84564        3.71150       -1.13227
H          0.45164        4.65587       -0.75410
C          1.11123        3.56922       -2.48890
F          0.86268        4.59526       -3.30876
C          3.97072        1.55982        1.10404
H          3.77112        2.18551        0.23104
C          3.41464       -0.29726        2.52353
H          2.75850       -1.13721        2.76990
C          5.06110        1.85244        1.91175
H          5.71872        2.69636        1.69445
C          4.51197       -0.02344        3.33604
H          4.70319       -0.65472        4.20410
C          5.34400        1.06242        3.03384
O          6.42129        1.41928        3.75919
C          6.75167        0.66792        4.89347
H          6.97544       -0.38334        4.63969
H          7.65026        1.12723        5.32448
H          5.94536        0.68617        5.64785
C          1.62545       -2.37441       -1.14532
H          0.57704       -2.42481       -0.84910
C          3.77078       -1.29431       -1.06159
H          4.42205       -0.49545       -0.69822
C          2.14439       -3.35370       -1.97747
H          1.52321       -4.17352       -2.34242
C          4.30822       -2.27379       -1.89398
H          5.36304       -2.22228       -2.16476
C          3.49128       -3.31183       -2.36200
O          3.91303       -4.30290       -3.16886
C          5.25200       -4.32185       -3.57714
H          5.94208       -4.40733       -2.71928
H          5.37286       -5.20409       -4.21835
H          5.51789       -3.42055       -4.15741
C         -2.85918       -2.10960       -1.54978
H         -3.61964       -2.33341       -0.79937
C         -0.96040       -0.83925       -2.30137
H         -0.20869       -0.06633       -2.13462
C         -2.84376       -2.83957       -2.73728
H         -3.57052       -3.63132       -2.92830
C         -0.94339       -1.54523       -3.49884
H         -0.19726       -1.34370       -4.26949
C         -1.88689       -2.54617       -3.69938
F         -1.87101       -3.23827       -4.83800
C         -4.63538        0.02396        0.74960
H         -4.62394        0.89492        0.08988
C         -3.48666       -1.76027        1.87736
H         -2.56334       -2.29557        2.11173
C         -5.83650       -0.39802        1.29834
H         -6.77200        0.12479        1.09005
C         -4.68904       -2.20493        2.42563
H         -4.68545       -3.07733        3.07942
C         -5.87540       -1.51854        2.14100
O         -7.08457       -1.85591        2.62837
C         -7.18556       -2.96493        3.47693
H         -6.58920       -2.83397        4.39711
H         -8.24426       -3.05652        3.75072
H         -6.86477       -3.89588        2.97686
C         -2.18363        2.52978        0.75881
H         -2.07793        2.22994        1.80523
C         -2.32032        1.96625       -1.56784
H         -2.33776        1.23308       -2.37566
C         -2.32542        3.87183        0.45356
H         -2.33548        4.63603        1.23326
C         -2.43675        3.31897       -1.89524
H         -2.52247        3.60452       -2.94371
C         -2.41752        4.28318       -0.88567
O         -2.45809        5.61272       -1.10056
C         -2.42166        6.07726       -2.42382
H         -3.31279        5.76212       -2.99454
H         -2.40652        7.17320       -2.37122
H         -1.51583        5.72758       -2.94876
