84
Cat386.ts34.5.log	Energy: -2337402.2633291
C         -0.48884       -0.82125       -3.16588
H         -0.10134       -1.77100       -3.54540
H         -1.54974       -0.65581       -3.38557
C          0.38602        0.28837       -3.09416
H          1.44696        0.15846       -3.33182
H          0.00805        1.27614       -3.38036
H          0.11854        0.92561       -1.56988
Co         0.03742       -0.51639       -1.23577
C         -2.11300        1.64428        0.35706
C         -3.40740       -0.48276       -1.09045
C         -2.18706       -1.06868        1.32666
C          2.39550       -1.06275        1.23704
C          3.28123       -0.22397       -1.38741
C          2.17622        1.66178        0.44945
P          1.87095       -0.03028       -0.20308
P         -1.83453       -0.09200       -0.20372
C          0.20117       -2.23325       -1.08387
O          0.29792       -3.38320       -1.02636
C         -2.05812        1.96239        1.72132
H         -1.97123        1.15993        2.45496
C         -2.23438        2.69160       -0.58536
C         -2.32258        2.45153       -2.06574
H         -3.36808        2.49722       -2.41039
H         -1.93755        1.46485       -2.34824
H         -1.75796        3.21617       -2.61980
C         -2.10653        3.28116        2.16359
H         -2.05024        3.49725        3.23289
C         -2.29315        4.01030       -0.11875
H         -2.39003        4.81914       -0.84906
C         -2.22602        4.31356        1.23812
H         -2.26667        5.35395        1.56964
C         -3.46008       -1.68866       -1.80061
C         -4.55079        0.32230       -1.03947
C         -5.76276       -1.26797       -2.39762
C         -5.71978       -0.06642       -1.69288
C         -4.63066       -2.08130       -2.44460
H         -2.57352       -2.32660       -1.83959
H         -4.65726       -3.02772       -2.99014
H         -6.67914       -1.57201       -2.90921
H         -6.60441        0.57377       -1.64617
H         -4.53035        1.26096       -0.47953
C         -1.21380       -1.93441        1.82697
C         -3.42770       -0.99780        1.97773
C         -2.68997       -2.62150        3.60812
C         -3.67480       -1.76364        3.11245
C         -1.46032       -2.70708        2.96177
H         -0.24633       -1.99550        1.32922
H         -0.67985       -3.37418        3.33557
H         -2.88817       -3.22689        4.49617
H         -4.64530       -1.69734        3.61039
H         -4.20913       -0.33962        1.59069
C          3.29587       -2.12024        1.05306
H          3.75558       -2.27446        0.07608
C          1.81798       -0.86142        2.51254
C          0.86163        0.25486        2.81029
H          0.24908        0.51237        1.93714
H          1.39711        1.17264        3.10063
H          0.18533       -0.02516        3.62975
C          3.62609       -2.98093        2.09574
H          4.32933       -3.79854        1.92188
C          2.16565       -1.73972        3.54585
H          1.71374       -1.58859        4.53021
C          3.05594       -2.79116        3.35092
H          3.30243       -3.46028        4.17885
C          3.32099       -1.37916       -2.18472
C          4.25380        0.76013       -1.59484
C          5.29802       -0.57854       -3.31821
C          5.25131        0.58445       -2.55496
C          4.32796       -1.56302       -3.12743
H          2.54887       -2.14306       -2.06942
H          4.34491       -2.47580       -3.72784
H          6.08080       -0.71488       -4.06817
H          5.99666        1.36944       -2.70502
H          4.23269        1.68150       -1.01150
C          1.29695        2.70213        0.14663
C          3.27598        1.92097        1.28047
C          2.60357        4.23269        1.48038
C          3.48984        3.19879        1.78929
C          1.50679        3.98154        0.65981
H          0.41993        2.50030       -0.47116
H          0.79534        4.77641        0.42551
H          2.76658        5.23321        1.88854
H          4.34901        3.38785        2.43759
H          3.96080        1.10951        1.54144
