56
Cat349.ts34.5.log	Energy: -1856508.1065058
C          4.04689        0.98033       -0.05007
H          4.82711        0.31856       -0.43693
H          4.05584        1.97352       -0.51344
C          3.69831        0.87946        1.33298
H          4.14960        0.08658        1.94000
H          3.57716        1.80751        1.90613
H          2.08788        0.97176        1.28362
Co         2.28439        0.06179        0.11858
C         -0.69679        1.64465       -0.39931
C          1.55360        3.13203       -1.21056
C          0.73378        0.93981       -2.78153
C         -0.66283       -1.57587        0.47716
C          1.57869       -2.93047        1.54958
C          0.54459       -0.69032        2.93322
P          0.97200       -1.22268        1.23380
P          1.01119        1.37951       -1.02133
C          2.79793       -1.18302       -0.96454
O          3.10523       -1.99602       -1.72971
C         -1.85087        1.35755       -1.13360
H         -1.77648        0.97439       -2.15251
C         -0.85411        2.12299        0.90850
H          0.03417        2.34548        1.50814
C         -3.11458        1.53451       -0.57442
H         -4.00006        1.28993       -1.16843
C         -2.11713        2.31015        1.45904
H         -2.20923        2.69188        2.48026
C         -3.27455        2.00851        0.73015
C         -4.63685        2.14472        1.34374
H         -4.94793        1.20004        1.82209
H         -4.65692        2.92420        2.11921
H         -5.39766        2.39175        0.58894
H          1.69090        3.58206       -0.21660
H          2.52210        3.15396       -1.73172
H          0.82052        3.72570       -1.77690
H          0.12453        1.68006       -3.32284
H          1.72168        0.86341       -3.25868
H          0.25613       -0.04819       -2.84325
C         -0.68264       -2.03670       -0.84655
H          0.25889       -2.19634       -1.37991
C         -1.88422       -1.37546        1.12466
H         -1.91369       -1.00547        2.15077
C         -1.88570       -2.29258       -1.49483
H         -1.87344       -2.65815       -2.52579
C         -3.08686       -1.62291        0.46624
H         -4.02984       -1.44642        0.99178
C         -3.11283       -2.08028       -0.85362
C         -4.41115       -2.29112       -1.57503
H         -5.21840       -2.57056       -0.88254
H         -4.72745       -1.36713       -2.08892
H         -4.32733       -3.07622       -2.34047
H          1.78427       -3.42038        0.58725
H          2.52610       -2.86851        2.10566
H          0.84934       -3.52868        2.11667
H         -0.05194       -1.44250        3.47082
H          1.48565       -0.52039        3.47577
H         -0.00594        0.25966        2.89367
