100
Cat358.ts34.5.log	Energy: -2624676.4411775
C         -0.61242       -0.92639       -3.48279
H         -0.47383       -1.94431       -3.85959
H         -1.60947       -0.51615       -3.67533
C          0.50105       -0.04394       -3.47175
H          1.49523       -0.40567       -3.75664
H          0.34346        0.99760       -3.77843
H          0.30153        0.69119       -1.96389
Co         0.04955       -0.70603       -1.59802
C         -1.42269        1.94259       -0.21100
C         -3.29318        0.12768       -1.40512
C         -2.17653       -0.56275        1.05282
C          1.50246       -1.08679        1.40975
C          3.30473       -1.12895       -0.79478
C          2.23153        1.36589        0.09028
P          1.71795       -0.36483       -0.26453
P         -1.65814        0.15430       -0.56074
C          0.03802       -2.43112       -1.40796
O          0.00805       -3.58279       -1.30078
C         -1.04947        2.44800        1.03807
H         -1.03732        1.78899        1.90715
C         -1.43784        2.83127       -1.29612
H         -1.71656        2.46690       -2.28935
C         -0.68946        3.78461        1.19327
H         -0.38471        4.14326        2.18064
C         -1.09668        4.16930       -1.13259
H         -1.12298        4.83897       -1.99710
C         -0.69992        4.67135        0.11324
C         -0.25188        6.09322        0.27865
H         -0.58411        6.72265       -0.55926
H         -0.63922        6.53216        1.21068
H          0.84907        6.14810        0.32340
C         -4.23237        1.16780       -1.34745
H         -3.98406        2.09920       -0.83304
C         -3.65301       -1.04835       -2.06769
H         -2.93372       -1.87024       -2.12053
C         -5.48035        1.03618       -1.93831
H         -6.21449        1.84350       -1.90164
C         -4.90732       -1.20005       -2.65620
H         -5.14898       -2.13568       -3.16101
C         -5.83056       -0.14993       -2.59798
O         -7.06344       -0.18864       -3.14256
C         -7.46901       -1.35039       -3.80881
H         -7.47651       -2.22819       -3.13849
H         -8.49080       -1.16883       -4.16592
H         -6.82308       -1.57439       -4.67633
C         -1.77925       -1.86875        1.36720
H         -1.13560       -2.41761        0.68087
C         -3.01489        0.10230        1.95202
H         -3.38021        1.10552        1.71865
C         -2.17856       -2.47808        2.54530
H         -1.86034       -3.49269        2.78951
C         -3.40007       -0.48440        3.15700
H         -4.04028        0.07388        3.84067
C         -2.96966       -1.78109        3.46434
O         -3.26002       -2.42760        4.61507
C         -4.05462       -1.78197        5.56899
H         -5.05741       -1.54201        5.17387
H         -4.16308       -2.47642        6.41185
H         -3.58585       -0.85010        5.93259
C          1.79510       -2.43668        1.62832
H          2.26782       -3.02565        0.83829
C          0.89167       -0.36769        2.44561
H          0.64149        0.68309        2.29796
C          1.47822       -3.04442        2.84233
H          1.70740       -4.10427        2.98465
C          0.59309       -0.97449        3.65834
H          0.10661       -0.38944        4.44400
C          0.86733       -2.32971        3.87729
C          0.46537       -2.98915        5.16315
H          0.84085       -2.43209        6.03582
H         -0.63368       -3.02624        5.24851
H          0.84499       -4.01859        5.22725
C          4.49721       -0.97202       -0.06896
H          4.50771       -0.36959        0.84195
C          3.33580       -1.90262       -1.95302
H          2.40985       -2.03037       -2.51829
C          5.67049       -1.57374       -0.48839
H          6.60145       -1.45953        0.07024
C          4.51034       -2.51735       -2.39051
H          4.49066       -3.11760       -3.30033
C          5.68817       -2.35403       -1.65637
O          6.87416       -2.89978       -1.98652
C          6.95474       -3.69018       -3.13927
H          6.69696       -3.11834       -4.04818
H          7.99560       -4.02909       -3.21679
H          6.29517       -4.57381       -3.07832
C          2.02723        2.35141       -0.88648
H          1.54304        2.08424       -1.82686
C          2.85901        1.75322        1.27827
H          3.04390        1.01821        2.06435
C          2.40967        3.66548       -0.67983
H          2.23581        4.42941       -1.43938
C          3.23798        3.07570        1.50952
H          3.70793        3.33470        2.45856
C          3.00324        4.04484        0.52956
O          3.29857        5.35567        0.66545
C          3.89089        5.79290        1.85635
H          4.86837        5.30954        2.02912
H          4.04363        6.87474        1.75401
H          3.24266        5.60449        2.73053
