90
Cat325.ts34.5.log	Energy: -2868388.1137783
C         -2.35223        1.06637       -2.32709
H         -2.46903        0.77619       -3.37467
H         -3.25049        0.90427       -1.72129
C         -1.50256        2.15956       -2.01044
H         -0.92533        2.64534       -2.80281
H         -1.82627        2.86338       -1.23481
H         -0.65683        1.56057       -0.68891
Co        -0.62133        0.36521       -1.55637
C         -2.86675        0.24619        0.95182
O         -2.34364       -2.05470       -0.08744
O         -0.48355       -0.95665        1.30978
C          2.36818       -0.88908       -0.49934
O          2.45459        0.90374       -2.38104
O          1.94716        1.70838       -0.10380
P          1.43882        0.53658       -1.15109
P         -1.52312       -0.63014        0.07089
C         -0.41568       -0.64451       -2.95721
O         -0.31575       -1.31286       -3.89225
C         -2.56241        1.46699        1.56748
H         -1.53539        1.84053        1.54988
C         -4.18731       -0.21218        0.97832
H         -4.42853       -1.16608        0.50655
C         -3.54666        2.21227        2.20705
H         -3.30943        3.15992        2.69309
C         -5.18552        0.52812        1.60750
H         -6.21734        0.17348        1.62906
C         -4.85847        1.73651        2.21957
Cl        -6.09328        2.66156        3.00408
C         -1.94345       -3.07428       -0.98457
H         -1.17903       -2.68870       -1.68052
H         -1.48653       -3.89127       -0.40002
C         -3.14145       -3.57324       -1.76328
H         -2.82724       -4.45752       -2.34490
H         -3.90450       -3.92844       -1.04817
C         -3.74114       -2.52635       -2.69179
H         -2.97370       -2.21096       -3.41888
H         -3.98435       -1.62527       -2.10487
C         -4.97953       -3.01498       -3.42389
H         -4.75726       -3.89801       -4.04464
H         -5.77536       -3.30270       -2.71774
H         -5.38921       -2.23848       -4.08729
C         -0.88626       -1.56661        2.52824
H         -1.23096       -0.77945        3.22335
H         -1.73571       -2.24482        2.34395
C          0.28709       -2.32295        3.11288
H         -0.04188       -2.77041        4.06749
H          0.54055       -3.16350        2.44388
C          1.52554       -1.46555        3.33380
H          1.25238       -0.58199        3.93930
H          1.86010       -1.07672        2.35901
C          2.66441       -2.21672        4.00263
H          2.37601       -2.58326        5.00131
H          2.97535       -3.08863        3.40641
H          3.54985       -1.57463        4.12661
C          1.80269       -2.16346       -0.50393
H          0.80082       -2.29917       -0.91251
C          3.64719       -0.70907        0.04083
H          4.09168        0.28840        0.04839
C          2.48997       -3.25108        0.02562
H          2.04938       -4.24925        0.03002
C          4.34478       -1.78427        0.57992
H          5.33767       -1.65300        1.01289
C          3.75509       -3.04913        0.57264
Cl         4.60126       -4.38692        1.27594
C          2.06826        1.83043       -3.38640
H          2.78125        1.67817       -4.21136
H          1.06068        1.57015       -3.75574
C          2.10074        3.26716       -2.90308
H          1.78723        3.91383       -3.74223
H          1.34057        3.39423       -2.11301
C          3.45589        3.70979       -2.37260
H          4.20843        3.62487       -3.17658
H          3.76437        3.00275       -1.58650
C          3.44379        5.12461       -1.81906
H          3.15159        5.85847       -2.58782
H          2.72730        5.21585       -0.98689
H          4.43301        5.41977       -1.43700
C          1.34058        1.87403        1.16776
H          0.57202        2.66647        1.08746
H          0.83632        0.94612        1.48195
C          2.39351        2.26873        2.18033
H          1.89723        2.37429        3.16134
H          3.10769        1.43346        2.28686
C          3.13883        3.54775        1.82885
H          2.41283        4.37600        1.74102
H          3.58305        3.43283        0.82709
C          4.21579        3.91053        2.83731
H          3.79257        4.05982        3.84395
H          4.97246        3.11316        2.91587
H          4.73883        4.83692        2.55577
