82
Cat336.ts34.5.log	Energy: -3053493.4672829
C          1.35104       -2.28525       -2.91952
H          1.06230       -2.31180       -3.97355
H          2.39602       -2.00327       -2.75203
C          0.73225       -3.18337       -2.01180
H         -0.09463       -3.81573       -2.35019
H          1.34626       -3.65821       -1.23787
H          0.45853       -2.17581       -0.70836
Co         0.00324       -1.28642       -1.79714
C          2.95815       -0.35805       -0.56451
O          1.50929        1.57628       -1.80602
O          0.67274        0.67480        0.50516
C         -2.51881        0.46140       -0.33008
O         -2.89654       -2.18381       -0.91772
O         -1.48503       -1.41482        1.08444
P         -1.65884       -1.12925       -0.54885
P          1.25447        0.16133       -0.96025
C         -0.76179       -0.73947       -3.26988
O         -1.22115       -0.37122       -4.25779
C          3.15848       -1.21349        0.52746
H          2.32777       -1.45140        1.19731
C          4.02318       -0.10039       -1.43261
H          3.86402        0.52908       -2.31101
C          4.40974       -1.76397        0.77569
H          4.57004       -2.42136        1.63169
C          5.28186       -0.64824       -1.19511
H          6.11819       -0.44620       -1.86628
C          5.46856       -1.47202       -0.08630
Cl         7.02938       -2.15451        0.21809
C          1.78826        2.80511       -1.26032
C          3.08212        3.32161       -1.32000
H          3.87255        2.74209       -1.79742
C          0.76103        3.54184       -0.66909
H         -0.24416        3.12029       -0.63387
C          3.34987        4.56801       -0.75660
H          4.36526        4.96930       -0.79952
C          1.04056        4.78066       -0.10129
H          0.23662        5.34226        0.37984
C          2.33579        5.29634       -0.13704
H          2.55346        6.26693        0.31366
C          1.09653        1.46156        1.53921
C          2.41727        1.85676        1.75031
H          3.20393        1.55518        1.06112
C          0.08861        1.86584        2.41874
H         -0.93458        1.54549        2.21229
C          2.71489        2.67273        2.84047
H          3.74828        2.99265        2.99347
C          0.40228        2.67523        3.50579
H         -0.39216        2.99401        4.18501
C          1.71807        3.08524        3.72218
H          1.96414        3.72667        4.57097
C         -2.33648        1.46429       -1.28568
H         -1.68782        1.29029       -2.14598
C         -3.32588        0.72188        0.78637
H         -3.46390       -0.04676        1.54815
C         -2.95282        2.70509       -1.14455
H         -2.80615        3.49004       -1.88794
C         -3.94191        1.95796        0.94093
H         -4.56968        2.16533        1.80882
C         -3.75006        2.94462       -0.02745
Cl        -4.50268        4.48956        0.16898
C         -4.12076       -2.16210       -0.29789
C         -5.17571       -1.48256       -0.90661
H         -4.99738       -0.97401       -1.85578
C         -4.30671       -2.82251        0.91692
H         -3.46960       -3.35122        1.37550
C         -6.42338       -1.45713       -0.28886
H         -7.24899       -0.92232       -0.76419
C         -5.55916       -2.78898        1.52735
H         -5.70663       -3.30463        2.47931
C         -6.61841       -2.10551        0.93064
H         -7.59750       -2.08195        1.41407
C         -0.61317       -2.30532        1.63110
C         -0.51394       -3.62006        1.16796
H         -1.14224       -3.94814        0.33742
C          0.17386       -1.86997        2.69904
H          0.07944       -0.83642        3.03588
C          0.39443       -4.49078        1.76811
H          0.47547       -5.51636        1.40016
C          1.06893       -2.75344        3.29737
H          1.68452       -2.40859        4.13168
C          1.18998       -4.06323        2.83028
H          1.89771       -4.75111        3.29779
