88
Cat398.ts34.5.log	Energy: -3679445.2142883
C         -1.45821        0.66231        2.94344
H         -1.54730        1.64549        3.41235
H         -2.40817        0.16668        2.72792
C         -0.32037       -0.12787        3.21255
H          0.49302        0.27497        3.82156
H         -0.43607       -1.21214        3.31919
H          0.20048       -0.64902        1.68865
Co        -0.20551        0.73024        1.34366
C         -1.11633       -1.13440       -1.50303
O         -2.80009       -0.89593        0.60389
O         -2.38722        1.07964       -1.02879
C          2.55892        2.19032       -0.03581
O          2.94631        0.23072        1.64403
O          1.93507       -0.40548       -0.63717
P          1.72642        0.69687        0.58987
P         -1.54384       -0.03902       -0.09782
C         -0.28920        2.47960        1.41358
O         -0.32719        3.62361        1.49888
C         -1.15095       -0.63643       -2.81189
H         -1.47128        0.39194       -2.97948
C         -0.70285       -2.46362       -1.27060
C         -0.66080       -3.07447        0.09869
H         -1.66098       -3.42509        0.39852
H         -0.32430       -2.35648        0.85879
H          0.01435       -3.94126        0.11687
C         -0.80919       -1.44021       -3.89528
H         -0.85318       -1.03581       -4.90903
C         -0.36029       -3.25203       -2.37513
H         -0.04293       -4.28394       -2.20337
C         -0.41754       -2.75849       -3.67501
H         -0.14827       -3.40336       -4.51487
C         -3.76697       -1.64943        0.00511
C         -4.28981       -1.37030       -1.25969
H         -3.92816       -0.51005       -1.82124
C         -4.25561       -2.73388        0.73845
H         -3.84483       -2.92292        1.73224
C         -5.28148       -2.18976       -1.79215
H         -5.69360       -1.98208       -2.78081
C         -5.25039       -3.54853        0.20980
H         -5.63609       -4.39674        0.77746
C         -5.75568       -3.27663       -1.06114
Cl        -6.98879       -4.29381       -1.73124
C         -2.77766        2.28407       -0.51691
C         -3.55129        2.36436        0.64205
H         -3.85732        1.44934        1.15081
C         -2.39645        3.44454       -1.18844
H         -1.79119        3.36118       -2.09202
C         -3.92114        3.60873        1.14172
H         -4.51750        3.68615        2.05200
C         -2.77256        4.68947       -0.69694
H         -2.47147        5.60487       -1.20813
C         -3.52619        4.76633        0.47329
Cl        -3.97853        6.31570        1.10129
C          3.54970        2.80808        0.73738
H          3.86731        2.33852        1.66897
C          2.12289        2.78688       -1.23812
C          1.06313        2.17053       -2.10136
H          0.21785        1.80781       -1.49980
H          1.45471        1.30735       -2.66171
H          0.68314        2.89932       -2.83027
C          4.13184        4.00186        0.32481
H          4.90566        4.47101        0.93635
C          2.72562        3.98601       -1.63158
H          2.39956        4.45526       -2.56356
C          3.71860        4.59091       -0.86707
H          4.16634        5.52951       -1.20206
C          2.85214       -0.85406        2.46287
C          3.19337       -0.69390        3.80650
H          3.50507        0.29111        4.15875
C          2.45234       -2.10469        1.98607
H          2.20857       -2.22877        0.93048
C          3.12322       -1.77448        4.67863
H          3.38487       -1.65828        5.73146
C          2.37034       -3.18513        2.86019
H          2.05331       -4.16497        2.49940
C          2.70161       -3.01668        4.20322
Cl         2.59601       -4.36135        5.29005
C          3.01540       -0.57471       -1.45736
C          2.74689       -1.09578       -2.72474
H          1.71418       -1.32779       -2.98819
C          4.32778       -0.28343       -1.08032
H          4.54068        0.10445       -0.08516
C          3.78439       -1.31743       -3.62233
H          3.58253       -1.72469       -4.61424
C          5.36608       -0.50017       -1.98327
H          6.39539       -0.27332       -1.70149
C          5.09333       -1.01239       -3.24934
Cl         6.39018       -1.27958       -4.36821
