90
Cat305.ts34.5.log	Energy: -2511152.1578987
C          0.95419        0.45217        3.55951
H          0.67248       -0.24634        4.35275
H          2.02995        0.65353        3.51119
C          0.04072        1.47778        3.19716
H         -0.96199        1.49913        3.63827
H          0.43027        2.48605        3.01024
H          0.15194        1.44060        1.52346
Co         0.09821       -0.00505        1.79963
C          1.96050        1.26211       -0.68642
C          3.47866       -0.33865        1.13346
C          1.74391       -1.62074       -0.70051
C         -1.90563       -1.30574       -0.54877
C         -3.25438        0.34646        1.38235
C         -1.69587        1.50112       -0.71583
P         -1.63784        0.14524        0.53167
P          1.78189       -0.17593        0.44322
C         -0.22921       -1.60245        2.39695
O         -0.39905       -2.67255        2.80123
C          1.72563        1.20830       -2.06217
H          1.54501        0.24570       -2.54459
C          2.22538        2.50968       -0.10000
H          2.40651        2.57315        0.97680
C          1.71525        2.36986       -2.83493
H          1.50075        2.34261       -3.90447
C          2.25799        3.66998       -0.86200
H          2.47138        4.64326       -0.41674
C          1.97986        3.58409       -2.22229
F          1.95102        4.70524       -2.94808
C          3.63997       -1.19761        2.22715
H          2.76632       -1.69727        2.65379
C          4.59949        0.30584        0.60050
H          4.48051        0.97727       -0.25413
C          4.90758       -1.41316        2.75921
H          5.03259       -2.09085        3.60736
C          5.87824        0.10903        1.13527
C          7.06593        0.83521        0.57233
H          7.96399        0.19979        0.57043
H          6.88132        1.17205       -0.45773
H          7.30177        1.72944        1.17323
C          6.01663       -0.76389        2.21997
H          7.00790       -0.93565        2.64911
C          2.79137       -2.05565       -1.42766
H          3.75350       -1.53855       -1.36502
C          0.44257       -2.35243       -0.73940
H          0.18544       -2.68101        0.27784
C          2.69647       -3.22581       -2.30180
H          3.59951       -3.54217       -2.83045
C          0.30287       -3.48563       -1.78065
C         -0.73264       -4.54783       -1.33912
H         -0.84045       -4.66551       -0.25030
H         -3.48294       -4.20038       -0.70530
H         -0.58091       -5.53312       -1.80211
C          1.54612       -3.90346       -2.46954
H          1.50478       -4.77268       -3.13365
C         -2.96002       -2.13161       -0.48662
H         -3.78172       -1.90153        0.19941
C         -0.72810       -1.58848       -1.42278
H         -0.36317       -0.66035       -1.88620
C         -3.11250       -3.36524       -1.32434
H         -3.89692       -3.18985       -2.08241
C         -0.86950       -2.70582       -2.47802
H         -0.87961       -2.41785       -3.53785
C         -1.86361       -3.79652       -2.06837
F         -2.26083       -4.52953       -3.17504
C         -3.35888       -0.04706        2.71799
H         -2.47407       -0.43238        3.23011
C         -4.38082        0.85997        0.72723
H         -4.29800        1.18335       -0.31378
C         -4.58333        0.05405        3.37772
H         -4.66583       -0.26002        4.42113
C         -5.61130        0.97518        1.37796
C         -6.81129        1.53809        0.67259
H         -7.13199        2.48728        1.13141
H         -6.59868        1.73409       -0.38754
H         -7.66791        0.84807        0.72640
C         -5.69644        0.56037        2.71468
H         -6.65124        0.64246        3.24222
C         -2.21195        1.30203       -2.00089
H         -2.59367        0.31984       -2.29024
C         -1.23692        2.77467       -0.36290
H         -0.82825        2.93639        0.63789
C         -2.24514        2.35710       -2.91195
H         -2.63840        2.19216       -3.91825
C         -1.28209        3.84683       -1.25668
C         -0.80503        5.21316       -0.86034
H         -1.63651        5.93633       -0.85680
H         -0.36004        5.20691        0.14409
H         -0.04949        5.58675       -1.56812
C         -1.78278        3.61600       -2.54476
H         -1.80744        4.43733       -3.26647
