104
Cat373.ts34.5.log	Energy: -2250904.8257566
C          0.60468        3.46813       -1.16198
H          0.68681        4.33430       -0.49866
H          1.46617        3.35247       -1.82974
C         -0.68586        3.10506       -1.64889
H         -1.56916        3.64225       -1.28777
H         -0.78722        2.83227       -2.70688
H         -0.60924        1.45344       -1.51564
Co        -0.02242        1.82292       -0.21120
C          1.03046       -0.98955       -1.71330
C          3.05082        1.03034       -1.55648
C          2.32562       -0.43565        0.80447
C         -1.05222       -0.74438        1.71681
C         -3.00561        1.29270        1.40533
C         -2.41468       -0.46051       -0.81683
P         -1.58917        0.52374        0.50076
P          1.56339        0.40956       -0.64634
C          0.32448        2.53751        1.32987
O          0.59912        2.99349        2.35824
C          0.90244       -2.30770       -1.26541
H          1.24836       -2.58713       -0.26968
C          0.56334       -0.69378       -3.00446
H          0.62967        0.33147       -3.38037
C          0.29805       -3.28231       -2.06212
H          0.19769       -4.30096       -1.67586
C         -0.02252       -1.66850       -3.80095
H         -0.38108       -1.40308       -4.79983
C         -0.18489       -2.98325       -3.33758
C         -0.87606       -4.01512       -4.17896
H         -1.95643       -3.80574       -4.24769
H         -0.48329       -4.02563       -5.20726
H         -0.75844       -5.02373       -3.75852
H          2.68058        1.48944       -2.48903
H          3.68213        0.17720       -1.84996
C          3.82093        2.05891       -0.73842
H          3.10034        2.75292       -0.27429
H          4.33687        1.55634        0.09958
C          4.84962        2.86731       -1.53149
H          4.30665        3.36933       -2.35518
C          5.46455        3.94882       -0.65126
H          4.69156        4.60880       -0.22800
H          6.17272        4.57476       -1.21627
H          6.01648        3.50012        0.19176
C          5.92830        1.98483       -2.14949
H          6.66355        2.58564       -2.70718
H          5.50822        1.24501       -2.84735
H          6.47563        1.43278       -1.36634
H          1.50832       -1.00698        1.27229
H          2.54240        0.37392        1.51921
C          3.54459       -1.32072        0.57623
H          3.43506       -1.88587       -0.36457
H          4.44419       -0.69397        0.44201
C          3.79996       -2.31748        1.71080
H          2.89998       -2.95858        1.78796
C          4.98829       -3.21216        1.38099
H          4.84427       -3.73585        0.42287
H          5.14978       -3.97297        2.16069
H          5.91447       -2.61891        1.29923
C          3.98616       -1.62489        3.05605
H          4.19820       -2.35601        3.85226
H          3.09028       -1.05902        3.35227
H          4.83425       -0.92010        3.02090
C         -0.54898       -0.31632        2.95595
H         -0.56149        0.74495        3.21532
C         -0.98487       -2.10963        1.42244
H         -1.35712       -2.48809        0.47000
C          0.01303       -1.21753        3.85116
H          0.40510       -0.85088        4.80413
C         -0.41055       -3.00956        2.32095
H         -0.36135       -4.07004        2.05721
C          0.10787       -2.58303        3.54582
C          0.76612       -3.53868        4.49609
H          0.61643       -4.58288        4.18791
H          1.85209       -3.35558        4.54444
H          0.37369       -3.42374        5.51811
H         -2.58998        1.70109        2.34144
H         -3.71725        0.50063        1.68706
C         -3.66107        2.40535        0.60403
H         -2.87413        3.12594        0.32909
H         -4.05108        2.00560       -0.35102
C         -4.79317        3.14005        1.32420
H         -4.38725        3.50924        2.28501
C         -5.23845        4.34840        0.50859
H         -4.39779        5.03193        0.31254
H         -6.02451        4.91864        1.02755
H         -5.64552        4.03321       -0.46699
C         -5.97396        2.22579        1.63217
H         -6.78052        2.77523        2.14202
H         -5.68908        1.38307        2.27979
H         -6.39425        1.80613        0.70212
H         -1.62154       -1.10313       -1.23412
H         -2.63208        0.26634       -1.61450
C         -3.65157       -1.27076       -0.45202
H         -3.54527       -1.70034        0.55833
H         -4.53188       -0.60493       -0.40105
C         -3.94325       -2.41118       -1.43204
H         -3.06429       -3.08495       -1.41505
C         -5.15811       -3.21052       -0.97789
H         -5.02770       -3.59395        0.04624
H         -5.34506       -4.07097       -1.63915
H         -6.06510       -2.58308       -0.98482
C         -4.11066       -1.91514       -2.86394
H         -4.34772       -2.74748       -3.54522
H         -3.19708       -1.42910       -3.23809
H         -4.93566       -1.18585       -2.93358
