108
Cat376.ts34.5.log	Energy: -2534621.1462824
C         -0.10077        2.48346       -3.25382
H          0.30179        2.31160       -4.25619
H         -1.16823        2.73018       -3.25252
C          0.74008        3.07627       -2.27110
H          1.79512        3.25559       -2.50410
H          0.33456        3.85388       -1.61264
H          0.36262        2.17587       -0.94179
Co         0.48269        1.08689       -1.93527
C         -1.76115        0.72674        0.58764
C         -2.87954        0.84977       -2.10872
C         -1.51563       -1.58481       -1.20917
C          2.12604       -1.30183       -0.08926
C          3.77224        0.64817       -1.30670
C          2.17853        1.33736        1.03640
P          2.03849        0.46473       -0.59879
P         -1.36745        0.28978       -1.14735
C          0.88896        0.04685       -3.25763
O          1.12223       -0.64512       -4.15673
C         -1.15058        0.02663        1.64034
H         -0.51561       -0.83501        1.42806
C         -2.53480        1.84295        0.91925
H         -2.98279        2.45490        0.13420
C         -1.34343        0.40614        2.96311
H         -0.85900       -0.16969        3.75693
C         -2.73324        2.21653        2.24804
H         -3.34989        3.09173        2.47110
C         -2.14843        1.50375        3.29764
C         -2.36482        1.89341        4.73000
H         -1.40785        2.00541        5.26310
H         -2.91152        2.84347        4.81156
H         -2.94519        1.12566        5.26726
H         -2.95113        1.93557       -1.94378
H         -2.55394        0.72968       -3.15304
C         -4.19098        0.16471       -1.88871
C         -4.54165       -0.94685       -2.66723
H         -3.88142       -1.26913       -3.47700
C         -5.08418        0.57561       -0.89023
H         -4.83884        1.44401       -0.27726
C         -5.72078       -1.64435       -2.41879
H         -5.97208       -2.51756       -3.02551
C         -6.27370       -0.10973       -0.62801
C         -7.20388        0.36249        0.45159
H         -6.66202        0.91205        1.23490
H         -7.97238        1.04019        0.04360
H         -7.72966       -0.47929        0.92552
C         -6.57790       -1.23728       -1.39980
H         -7.49721       -1.79583       -1.20351
H         -2.14619       -1.78290       -2.09024
H         -0.50646       -1.93295       -1.46086
C         -2.02085       -2.34972       -0.02029
C         -1.16606       -3.24471        0.63657
H         -0.15065       -3.38927        0.26354
C         -3.31143       -2.17392        0.48305
H         -3.98649       -1.47279       -0.00692
C         -1.59527       -3.92705        1.77094
H         -0.91427       -4.61615        2.27762
C         -3.75850       -2.84892        1.62279
C         -5.14547       -2.59776        2.14065
H         -5.89588       -2.74327        1.34805
H         -5.39442       -3.26403        2.97879
H         -5.24957       -1.55779        2.49088
C         -2.88322       -3.72933        2.26614
H         -3.21378       -4.26262        3.16192
C          2.06473       -2.27896       -1.09457
H          1.90818       -1.98399       -2.13459
C          2.33674       -1.73019        1.22458
H          2.41193       -1.00839        2.03881
C          2.22753       -3.62702       -0.79614
H          2.18409       -4.36296       -1.60391
C          2.48007       -3.08491        1.52227
H          2.64370       -3.38870        2.55990
C          2.43360       -4.05860        0.52138
C          2.55957       -5.51808        0.84295
H          3.01531       -5.67679        1.83052
H          1.56882       -6.00272        0.85294
H          3.16857       -6.04494        0.09314
H          3.71619        0.14810       -2.28549
H          3.89365        1.72290       -1.51055
C          4.88133        0.09040       -0.47002
C          5.56046        0.87031        0.47686
H          5.34026        1.93603        0.56723
C          5.22484       -1.26240       -0.57352
H          4.71605       -1.88157       -1.31634
C          6.52682        0.30086        1.30161
H          7.05131        0.92334        2.03074
C          6.18035       -1.85606        0.25583
C          6.46639       -3.32539        0.14090
H          5.59890       -3.91507        0.48012
H          6.66489       -3.61527       -0.90244
H          7.33413       -3.61918        0.74810
C          6.82922       -1.05550        1.20091
H          7.58311       -1.49756        1.85801
H          1.40227        0.89186        1.67512
H          3.16030        1.09695        1.47430
C          1.95450        2.81835        0.95766
C          2.93271        3.69114        0.46423
H          3.90410        3.30527        0.15189
C          0.72657        3.35487        1.35694
H         -0.04101        2.68328        1.74846
C          2.67681        5.05491        0.36455
H          3.44858        5.72500       -0.02198
C          0.45067        4.72412        1.26137
C         -0.88756        5.26020        1.68021
H         -1.17545        4.88355        2.67313
H         -0.88982        6.35882        1.71229
H         -1.67565        4.94073        0.97930
C          1.44270        5.56980        0.75617
H          1.24811        6.64264        0.67462
