94
Cat345.ts34.5.log	Energy: -3152014.8604775
C          0.84435       -0.12638       -3.56714
H          0.62219        0.70224       -4.24607
H          1.89246       -0.44141       -3.56999
C         -0.15956       -1.08916       -3.31134
H         -1.16354       -0.96809       -3.73011
H          0.13481       -2.14185       -3.23216
H         -0.09588       -1.27998       -1.60273
Co         0.06258        0.17588       -1.72828
C          1.39444       -1.46767        0.88813
C          3.21812       -0.85071       -1.25780
C          2.49409        1.17091        0.59945
C         -1.65020        1.51705        0.74807
C         -3.29058        0.63716       -1.41920
C         -2.25885       -1.31192        0.37352
P         -1.73766        0.20685       -0.53437
P          1.73713       -0.18518       -0.39268
C          0.07610        1.87054       -2.10569
O          0.13266        2.99028       -2.38727
C          1.54851       -1.24459        2.26096
H          1.98251       -0.30766        2.61456
C          0.82681       -2.68374        0.48178
H          0.66003       -2.87207       -0.58180
C          1.13180       -2.18749        3.19860
H          1.23264       -1.99366        4.26782
C          0.43703       -3.64967        1.40116
H         -0.01283       -4.58646        1.07135
C          0.57695       -3.38658        2.76172
Cl         0.01846       -4.55037        3.91951
C          3.67951       -2.16124       -1.15625
H          3.20122       -2.84125       -0.44859
C          3.86849        0.02506       -2.15254
O          3.38479        1.27954       -2.18857
C          3.81265        2.17574       -3.17247
H          4.87278        2.45503       -3.04044
H          3.18788        3.07113       -3.06372
H          3.67286        1.76061       -4.18600
C          4.75262       -2.61267       -1.92652
H          5.09727       -3.64453       -1.82975
C          4.94317       -0.42024       -2.92713
H          5.44363        0.25870       -3.61847
C          5.37972       -1.74017       -2.81029
H          6.22086       -2.08155       -3.41859
C          1.88503        2.42399        0.61563
H          0.96047        2.56263        0.05620
C          3.70186        1.00378        1.31435
O          4.25176       -0.22328        1.28741
C          5.49231       -0.45058        1.88892
H          6.27471        0.20677        1.47161
H          5.75300       -1.49443        1.67316
H          5.45202       -0.30874        2.98360
C          2.42679        3.49574        1.32469
H          1.91327        4.45895        1.33506
C          4.25702        2.07646        2.02002
H          5.18806        1.95067        2.57329
C          3.61402        3.31473        2.02385
H          4.05486        4.14256        2.58504
C         -2.22190        2.77253        0.51106
H         -2.84883        2.92753       -0.37000
C         -0.82944        1.36391        1.87233
H         -0.31957        0.41659        2.05146
C         -1.98670        3.84260        1.36998
H         -2.42137        4.82351        1.17085
C         -0.60594        2.41603        2.75356
H          0.04682        2.28958        3.61838
C         -1.17946        3.65711        2.49041
Cl        -0.85028        4.99441        3.54464
C         -3.23142        0.88463       -2.78850
H         -2.24798        0.84212       -3.26285
C         -4.54131        0.70043       -0.76832
O         -4.53599        0.49335        0.55861
C         -5.73938        0.48472        1.27061
H         -6.24350        1.46637        1.23523
H         -5.48123        0.25291        2.31149
H         -6.43107       -0.28853        0.89364
C         -4.37795        1.17951       -3.52604
H         -4.30854        1.37281       -4.59833
C         -5.69646        0.98786       -1.50351
H         -6.66800        1.03852       -1.01116
C         -5.60682        1.22275       -2.87614
H         -6.51753        1.44899       -3.43658
C         -2.37797       -1.40505        1.75969
H         -2.20647       -0.51971        2.37078
C         -2.55945       -2.45711       -0.39456
O         -2.49097       -2.30977       -1.73198
C         -2.81466       -3.38193       -2.56833
H         -2.13626       -4.24030       -2.41761
H         -2.70354       -3.01865       -3.59752
H         -3.85523       -3.71791       -2.41682
C         -2.73075       -2.59922        2.38689
H         -2.78832       -2.64698        3.47582
C         -2.92198       -3.65619        0.22686
H         -3.14937       -4.53979       -0.36983
C         -2.99458       -3.72545        1.61731
H         -3.26051       -4.67064        2.09625
