108
Cat356.ts34.5.log	Energy: -2346496.1619733
C         -0.70770        0.19785       -3.58233
H         -0.43426       -0.58739       -4.29319
H         -1.76208        0.48701       -3.64544
C          0.25685        1.19469       -3.26837
H          1.26581        1.12709       -3.68888
H         -0.07942        2.23668       -3.19365
H          0.11952        1.32485       -1.59220
Co         0.03509       -0.13726       -1.74413
C         -1.45509        1.51742        0.74076
C         -3.24904        0.68685       -1.33119
C         -2.19671       -1.27294        0.71035
C          1.43507       -1.19723        1.10252
C          3.23802       -0.97991       -1.09677
C          2.22592        1.48662        0.37791
P          1.72956       -0.14253       -0.37739
P         -1.70673        0.11917       -0.43249
C          0.26876       -1.78672       -2.20267
O          0.43926       -2.88476       -2.53419
C         -1.29011        1.38211        2.12166
H         -1.39383        0.40634        2.59617
C         -1.31363        2.80690        0.19912
H         -1.42671        2.95535       -0.87848
C         -0.96262        2.47965        2.92152
H         -0.82317        2.33267        3.99661
C         -1.01651        3.90098        0.99928
H         -0.92244        4.89008        0.54178
C         -0.81372        3.75711        2.38032
C         -0.42185        4.93243        3.22575
H          0.61854        5.23560        3.01874
H         -1.05836        5.80687        3.02108
H         -0.49296        4.70135        4.29786
H         -2.81511        1.39240       -2.06617
C         -4.32724        1.45638       -0.56659
H         -3.88316        2.27867        0.01375
H         -4.81863        0.79306        0.16184
C         -5.37690        2.00033       -1.53346
H         -6.16057        2.53922       -0.97600
H         -4.90251        2.74487       -2.19884
C         -5.99384        0.89178       -2.37995
H         -6.71709        1.31181       -3.09791
H         -6.56853        0.21468       -1.72170
C         -4.92515        0.08462       -3.10937
H         -4.42827        0.72627       -3.85982
H         -5.38427       -0.74676       -3.66874
C         -3.87535       -0.45069       -2.14085
H         -4.35859       -1.16193       -1.44916
H         -3.09454       -1.01391       -2.67537
H         -1.34036       -1.29391        1.41095
C         -2.20738       -2.64155        0.02316
H         -1.27178       -2.79415       -0.53025
H         -3.01712       -2.67989       -0.72417
C         -2.40457       -3.76585        1.03586
H         -2.44738       -4.73532        0.51305
H         -1.51915       -3.80362        1.69264
C         -3.64885       -3.56437        1.89192
H         -3.73037       -4.36351        2.64722
H         -4.54956       -3.64571        1.25626
C         -3.63753       -2.19453        2.55935
H         -2.79868       -2.14278        3.27811
H         -4.55992       -2.03952        3.14300
C         -3.47847       -1.08452        1.52456
H         -4.34423       -1.11710        0.84183
H         -3.50449       -0.09710        2.00923
C          1.34958       -2.58895        0.92973
H          1.51558       -3.03148       -0.05493
C          1.19170       -0.69080        2.38312
H          1.24299        0.38126        2.57152
C          1.03809       -3.42804        1.99155
H          0.98622       -4.50696        1.82031
C          0.85704       -1.53572        3.44203
H          0.66234       -1.10336        4.42788
C          0.76952       -2.91824        3.26964
C          0.36852       -3.82877        4.39176
H          0.40339       -3.31505        5.36271
H         -0.66121       -4.19737        4.24667
H          1.02176       -4.71278        4.44726
H          2.78521       -1.92095       -1.46073
C          4.39177       -1.37314       -0.17520
H          4.01591       -1.89191        0.72014
H          4.91636       -0.47285        0.17940
C          5.38693       -2.25422       -0.92715
H          6.22490       -2.52823       -0.26545
H          4.89103       -3.20067       -1.20947
C          5.90565       -1.56173       -2.18347
H          6.59628       -2.22340       -2.73127
H          6.49599       -0.67533       -1.88670
C          4.76250       -1.11830       -3.09052
H          4.24386       -2.00937       -3.48755
H          5.15349       -0.57143       -3.96406
C          3.75142       -0.25657       -2.34092
H          4.22997        0.69386       -2.04531
H          2.89893        0.00021       -2.98756
H          1.32754        1.72370        0.98015
C          2.36619        2.62723       -0.63395
H          1.49227        2.65360       -1.29905
H          3.24404        2.44695       -1.27801
C          2.52070        3.96943        0.07630
H          2.65534        4.77259       -0.66670
H          1.58003        4.18959        0.60915
C          3.67150        3.97023        1.07558
H          3.70950        4.93030        1.61632
H          4.62943        3.88338        0.53106
C          3.55393        2.80682        2.05307
H          2.65771        2.94413        2.68603
H          4.41952        2.78644        2.73526
C          3.44214        1.48077        1.30680
H          4.35233        1.34608        0.69967
H          3.41187        0.63678        2.01105
