108
Cat371.ts34.5.log	Energy: -2534614.3037058
C          0.64381       -1.99571       -2.90286
H          0.19525       -1.85883       -3.89085
H          1.73172       -2.11968       -2.91630
C         -0.11246       -2.67283       -1.91191
H         -1.14007       -2.97789       -2.13701
H          0.41115       -3.39367       -1.27136
H          0.00743       -1.74310       -0.55362
Co        -0.04158       -0.65048       -1.56662
C          3.13951       -1.15176       -0.90891
C          2.43296        1.65795       -1.23551
C          1.74715        0.35700        1.26337
C         -1.61718        1.94215       -0.13595
C         -3.30666        0.08126       -1.56538
C         -2.36925       -0.46606        1.12382
P         -1.75965        0.14130       -0.52223
P          1.77052        0.02721       -0.59489
C         -0.21270        0.39172       -2.92610
O         -0.25824        1.08196       -3.85582
C          3.21747       -2.35282       -0.18867
H          2.55773       -2.52619        0.66082
C          3.96831       -1.02551       -2.03183
H          3.90123       -0.14380       -2.67197
C          4.13032       -3.34341       -0.53285
H          4.17054       -4.25787        0.06572
C          4.87693       -2.02257       -2.37857
H          5.50877       -1.88482       -3.26064
C          4.98992       -3.19597       -1.62727
C          5.99589       -4.25369       -1.97264
H          6.32344       -4.17376       -3.01908
H          6.89386       -4.16548       -1.33818
H          5.58814       -5.26366       -1.81696
H          2.72230        1.46455       -2.27942
H          1.53879        2.29289       -1.29910
C          3.53024        2.32810       -0.46168
C          4.85375        1.87653       -0.56073
H          5.08560        1.04690       -1.22855
C          3.24715        3.40785        0.40523
C          1.86820        3.99216        0.50718
H          1.10415        3.24605        0.77058
H          1.54683        4.43454       -0.44951
H          1.83204        4.78318        1.26886
C          5.87832        2.44466        0.19031
H          6.89808        2.06535        0.09151
C          4.28756        3.95984        1.16229
H          4.06129        4.78890        1.83848
C          5.59304        3.48716        1.06812
H          6.38404        3.93761        1.67226
H          2.05313        1.40598        1.37373
H          0.68762        0.30164        1.54152
C          2.59905       -0.47386        2.17571
C          3.95407       -0.15416        2.31555
H          4.35459        0.70008        1.76492
C          2.07623       -1.57707        2.88120
C          0.63235       -1.97158        2.75979
H          0.31388       -2.05432        1.70836
H         -0.03034       -1.23139        3.23893
H          0.44137       -2.93883        3.24389
C          4.79582       -0.91008        3.12488
H          5.85147       -0.64210        3.21073
C          2.93546       -2.32509        3.69349
H          2.53143       -3.18387        4.23708
C          4.28525       -2.00513        3.81715
H          4.93431       -2.61058        4.45437
C         -1.51825        2.85855       -1.19549
H         -1.50994        2.50724       -2.22890
C         -1.60295        2.45707        1.16567
H         -1.66572        1.79297        2.02836
C         -1.44930        4.22605       -0.95929
H         -1.39000        4.91078       -1.81014
C         -1.52559        3.83037        1.39742
H         -1.52295        4.19711        2.42769
C         -1.45483        4.74309        0.34347
C         -1.34187        6.21790        0.58947
H         -1.66852        6.48492        1.60438
H         -0.29683        6.55337        0.47912
H         -1.94367        6.79413       -0.12892
H         -3.08808        0.75927       -2.40690
H         -3.28781       -0.92909       -1.99353
C         -4.63707        0.39389       -0.94351
C         -4.89033        1.67163       -0.42419
H         -4.10906        2.43195       -0.47742
C         -5.66128       -0.57808       -0.89696
C         -5.47645       -1.95348       -1.46998
H         -4.64133       -2.48750       -0.99234
H         -5.26914       -1.91583       -2.55178
H         -6.38120       -2.55894       -1.32526
C         -6.11746        1.99498        0.14906
H         -6.28466        2.99936        0.54514
C         -6.88837       -0.23378       -0.31796
H         -7.67965       -0.98759       -0.28222
C         -7.12405        1.03454        0.20566
H         -8.09297        1.27143        0.65167
H         -1.49045       -0.46797        1.78892
H         -3.04995        0.30890        1.49507
C         -3.05766       -1.80211        1.18372
C         -2.49005       -2.93026        0.58353
H         -1.54944       -2.81460        0.04907
C         -4.27284       -1.94009        1.88989
C         -4.91049       -0.78299        2.60240
H         -5.13276        0.04896        1.91704
H         -4.25710       -0.39031        3.39861
H         -5.85730       -1.08708        3.06857
C         -3.10589       -4.17802        0.64232
H         -2.63870       -5.03876        0.15808
C         -4.88252       -3.19895        1.93240
H         -5.82853       -3.30420        2.47052
C         -4.31646       -4.31204        1.31545
H         -4.81942       -5.28064        1.36655
