102
Cat327.ts34.5.log	Energy: -2873837.0400812
C         -0.68233        0.28625       -3.72973
H         -0.41949       -0.48819       -4.45609
H         -1.73000        0.59841       -3.79255
C          0.29988        1.25225       -3.38203
H          1.31171        1.17219       -3.79300
H         -0.01375        2.29892       -3.28099
H          0.15915        1.34207       -1.69883
Co         0.03506       -0.11223       -1.89171
C         -1.40788        1.50579        0.62338
C         -3.22449        0.80859       -1.47830
C         -2.26076       -1.25113        0.51364
C          1.39559       -1.27737        0.91384
C          3.21483       -1.06933       -1.27469
C          2.28765        1.39574        0.26150
P          1.73680       -0.19508       -0.53721
P         -1.71308        0.15187       -0.58923
C          0.21387       -1.75746       -2.38963
O          0.34722       -2.85242       -2.74586
C         -1.23007        1.31647        1.99755
H         -1.38688        0.33480        2.44375
C         -1.20963        2.80128        0.11555
H         -1.33824        2.98937       -0.95370
C         -0.81186        2.35740        2.82838
H         -0.64686        2.18781        3.89396
C         -0.82233        3.85557        0.93071
H         -0.67010        4.85475        0.51968
C         -0.59410        3.61933        2.28770
Cl         0.00141        4.90067        3.29090
H         -2.75642        1.51691       -2.18941
C         -4.27516        1.59864       -0.69632
H         -3.80286        2.38224       -0.08538
H         -4.80035        0.93332        0.00614
C         -5.29206        2.21838       -1.65240
H         -6.05615        2.77232       -1.08292
H         -4.78060        2.96283       -2.28978
C         -5.94890        1.16513       -2.53841
H         -6.64655        1.63890       -3.24799
H         -6.55835        0.49347       -1.90654
C         -4.90983        0.33557       -3.28526
H         -4.37895        0.97812       -4.01124
H         -5.39945       -0.45709       -3.87398
C         -3.89283       -0.27569       -2.32671
H         -4.41269       -0.98544       -1.66073
H         -3.13349       -0.85647       -2.87326
H         -1.40502       -1.33286        1.21051
C         -2.33474       -2.59583       -0.21701
H         -1.40527       -2.77658       -0.77294
H         -3.14123       -2.56875       -0.96814
C         -2.59560       -3.74303        0.75566
H         -2.68748       -4.68895        0.19742
H         -1.72200       -3.85583        1.41867
C         -3.83024       -3.50685        1.61627
H         -3.95270       -4.32674        2.34234
H         -4.73294       -3.51649        0.97823
C         -3.74403       -2.16551        2.33359
H         -2.90240       -2.18908        3.05030
H         -4.65517       -1.98253        2.92639
C         -3.53116       -1.02929        1.33745
H         -4.39734       -0.99650        0.65533
H         -3.51052       -0.05827        1.85488
C          1.23131       -2.65498        0.69324
H          1.39126       -3.07645       -0.30123
C          1.16720       -0.79385        2.20722
H          1.29026        0.26525        2.43079
C          0.83529       -3.51185        1.71210
H          0.70768       -4.57885        1.52375
C          0.74679       -1.63661        3.23552
H          0.54940       -1.24238        4.23399
C          0.56877       -2.99176        2.97874
Cl        -0.02534       -4.03629        4.22628
H          2.72745       -1.97799       -1.67457
C          4.34425       -1.54012       -0.35920
H          3.94127       -2.07670        0.51362
H          4.89978       -0.67482        0.03304
C          5.31128       -2.43177       -1.13505
H          6.13200       -2.76082       -0.47706
H          4.78232       -3.34800       -1.45452
C          5.86696       -1.71581       -2.36194
H          6.53667       -2.38385       -2.92743
H          6.48789       -0.86359       -2.02985
C          4.74957       -1.19798       -3.26142
H          4.20067       -2.05403       -3.69324
H          5.16837       -0.63636       -4.11228
C          3.76626       -0.32388       -2.48947
H          4.27912        0.59588       -2.15713
H          2.93048       -0.01132       -3.13355
H          1.40091        1.64671        0.87504
C          2.46022        2.55668       -0.72283
H          1.57808        2.63504       -1.37329
H          3.31941        2.35618       -1.38556
C          2.68356        3.87441        0.01510
H          2.84450        4.68606       -0.71314
H          1.76551        4.12961        0.56999
C          3.84417        3.80287        0.99958
H          3.92789        4.74841        1.55914
H          4.79213        3.68303        0.44388
C          3.67891        2.62774        1.95540
H          2.79343        2.79780        2.59516
H          4.54542        2.55473        2.63251
C          3.50713        1.32279        1.18340
H          4.40744        1.16238        0.56788
H          3.44699        0.46614        1.87059
