90
Cat319.ts34.5.log	Energy: -2760172.3405710
C         -0.04492        2.78296       -2.99479
H          0.27458        2.64708       -4.03182
H         -1.06566        3.16963       -2.90264
C          0.92247        3.16739       -2.02626
H          1.97739        3.22573       -2.31499
H          0.66149        3.92995       -1.28276
H          0.50512        2.20763       -0.74910
Co         0.40697        1.20731       -1.83392
C         -1.70429        0.91261        0.81397
C         -2.95899        1.46843       -1.75903
C         -1.91418       -1.20810       -1.22010
C          1.83867       -1.54906       -0.34602
C          3.63482        0.30378       -1.50740
C          2.30770        0.93296        1.00857
P          1.94465        0.25864       -0.68544
P         -1.48534        0.60786       -0.98083
C          0.56631        0.24378       -3.26255
O          0.63364       -0.39480       -4.22596
C         -1.16807        0.01725        1.75269
H         -0.70176       -0.91118        1.41998
C         -2.25443        2.10848        1.29343
H         -2.62823        2.86068        0.59663
C         -1.22047        0.27971        3.11852
H         -0.81837       -0.42513        3.84845
C         -2.31684        2.38771        2.65735
H         -2.75179        3.31643        3.03141
C         -1.80687        1.46102        3.55788
F         -1.87003        1.71465        4.86234
H         -2.86104        2.53270       -1.49639
H         -2.72712        1.41032       -2.83329
C         -4.33925        0.95477       -1.49588
C         -4.90875        0.00021       -2.35184
H         -4.35811       -0.32202       -3.23973
C         -5.10011        1.37842       -0.39647
H         -4.70071        2.13087        0.28391
C         -6.16589       -0.54505       -2.10709
H         -6.60480       -1.29214       -2.77049
C         -6.36163        0.84901       -0.13830
H         -6.95275        1.17658        0.71872
C         -6.87705       -0.11736       -0.99345
F         -8.08010       -0.63168       -0.74823
H         -2.61985       -1.21528       -2.06572
H         -0.98576       -1.66061       -1.58971
C         -2.44372       -2.03584       -0.08612
C         -1.67729       -3.10405        0.39595
H         -0.71676       -3.32432       -0.07309
C         -3.66982       -1.77264        0.53724
H         -4.28692       -0.94333        0.19379
C         -2.10267       -3.88244        1.46950
H         -1.50211       -4.71317        1.84473
C         -4.11327       -2.54163        1.60827
H         -5.06701       -2.33627        2.09764
C         -3.32066       -3.58700        2.06689
F         -3.73809       -4.31965        3.09950
C          1.58994       -2.40627       -1.42955
H          1.40955       -1.99339       -2.42448
C          2.06439       -2.12360        0.91076
H          2.27611       -1.49816        1.77857
C          1.58596       -3.78902       -1.27339
H          1.39875       -4.45854       -2.11479
C          2.04507       -3.50577        1.08824
H          2.22044       -3.95755        2.06614
C          1.81442       -4.32320       -0.00953
F          1.80094       -5.64284        0.15145
H          3.45057       -0.07317       -2.52482
H          3.87901        1.37175       -1.61491
C          4.72346       -0.46747       -0.82938
C          5.54975        0.11416        0.14175
H          5.45163        1.17649        0.37503
C          4.91550       -1.82716       -1.11694
H          4.29942       -2.30631       -1.88037
C          6.51485       -0.62782        0.81935
H          7.16039       -0.17335        1.57291
C          5.87254       -2.58511       -0.45121
H          6.01988       -3.64309       -0.67512
C          6.65889       -1.97547        0.51875
F          7.57545       -2.69475        1.16429
H          1.52815        0.51855        1.66409
H          3.27733        0.53278        1.34462
C          2.26178        2.42919        1.09418
C          3.29710        3.24208        0.61710
H          4.19411        2.79136        0.18934
C          1.13457        3.05622        1.63893
H          0.31695        2.44503        2.02207
C          3.21286        4.63120        0.66929
H          4.01832        5.26734        0.29838
C          1.03011        4.44252        1.69833
H          0.15087        4.92872        2.12477
C          2.07385        5.21661        1.20731
F          1.98480        6.54452        1.25920
