90
Cat332.ts34.5.log	Energy: -2963354.3993842
C          0.74143        0.22895        3.67928
H          0.46499       -0.55232        4.39349
H          1.80467        0.49034        3.69940
C         -0.20836        1.23446        3.36365
H         -1.22679        1.17749        3.76294
H          0.13876        2.27069        3.26973
H         -0.01629        1.34502        1.68232
Co        -0.01213       -0.11315        1.84375
C          1.76095        1.57185       -0.39594
C          3.39571       -0.04709        1.31884
C          1.99465       -1.30384       -0.72967
C         -1.78631       -1.30330       -0.72926
C         -3.35593       -0.15399        1.35064
C         -1.96629        1.55943       -0.46540
P         -1.71564        0.03247        0.53030
P          1.72349       -0.00478        0.54710
C         -0.27394       -1.77334        2.28080
O         -0.42483       -2.87840        2.58562
C          1.33635        1.68811       -1.72302
H          1.11092        0.79146       -2.30194
C          2.04410        2.75027        0.31235
H          2.36241        2.69132        1.35698
C          1.19151        2.93351       -2.33126
H          0.84140        3.01322       -3.36137
C          1.92109        3.99916       -0.28375
H          2.14745        4.91042        0.27237
C          1.48577        4.08267       -1.60634
Cl         1.29007        5.64227       -2.34143
C          3.59523       -0.96581        2.35663
H          2.75153       -1.56612        2.70758
C          4.48783        0.70650        0.87794
H          4.36695        1.42212        0.06126
C          4.85039       -1.12508        2.93342
H          4.98294       -1.85455        3.73753
C          5.74006        0.55122        1.46829
H          6.58035        1.15157        1.10783
C          5.94551       -0.36343        2.50656
C          7.28774       -0.50893        3.16120
H          8.09659       -0.15048        2.50864
H          7.33513        0.07476        4.09587
H          7.49607       -1.55688        3.42313
C          2.83869       -1.12465       -1.83214
H          3.35761       -0.17396       -1.97767
C          1.39366       -2.55380       -0.55175
H          0.73890       -2.72336        0.30269
C          3.02763       -2.15041       -2.75472
H          3.67645       -1.98272       -3.61911
C          1.60803       -3.58392       -1.46023
H          1.11422       -4.54664       -1.30387
C          2.41015       -3.39632       -2.59099
C          2.58661       -4.50025       -3.59105
H          1.61104       -4.81990       -3.99018
H          3.21924       -4.18847       -4.43378
H          3.05061       -5.38537       -3.12744
C         -2.32925       -2.54739       -0.38687
H         -2.82400       -2.67959        0.57836
C         -1.15360       -1.17129       -1.97157
H         -0.70940       -0.21686       -2.25551
C         -2.23744       -3.63188       -1.25536
H         -2.65079       -4.60343       -0.98009
C         -1.06988       -2.23939       -2.85696
H         -0.56376       -2.13045       -3.81706
C         -1.60447       -3.47011       -2.48592
Cl        -1.44872       -4.82809       -3.55478
C         -3.40219       -0.51209        2.69843
H         -2.46214       -0.65864        3.23504
C         -4.56491        0.03341        0.66665
H         -4.55995        0.32293       -0.38623
C         -4.62394       -0.69085        3.34704
H         -4.63524       -0.97700        4.40237
C         -5.77882       -0.14350        1.31710
H         -6.71080        0.00520        0.76402
C         -5.83220       -0.50902        2.67092
C         -7.15171       -0.68295        3.36318
H         -7.81033       -1.36401        2.80213
H         -7.02590       -1.08819        4.37675
H         -7.68192        0.27947        3.44950
C         -2.63077        1.56883       -1.69823
H         -3.00005        0.63692       -2.13129
C         -1.52043        2.78405        0.04598
H         -0.99687        2.80882        1.00335
C         -2.81834        2.75747       -2.40013
H         -3.33173        2.73306       -3.36544
C         -1.71875        3.96852       -0.65224
H         -1.34502        4.90652       -0.23316
C         -2.36293        3.97896       -1.89535
C         -2.53292        5.25771       -2.65947
H         -3.01577        6.03002       -2.04080
H         -1.55230        5.65566       -2.96510
H         -3.14198        5.11280       -3.56254
