88
Cat367.ts34.5.log	Energy: -2775134.5643456
C         -0.27463        2.93466       -1.93222
H          0.71843        3.17779       -2.31931
H         -1.07751        2.94789       -2.67416
C         -0.58665        3.19087       -0.58853
H          0.14975        3.70506        0.03675
H         -1.62760        3.38149       -0.30497
H         -0.16985        1.83300        0.40941
Co        -0.30103        1.16003       -0.90746
C         -3.54820        1.17243       -0.06925
O         -2.34105       -1.19515       -0.59108
O         -1.97673        0.05458        1.66747
C          1.85805       -1.30201        0.07584
O          2.63141        0.42665       -1.82150
O          2.58538        1.13106        0.66831
P          1.60150        0.40386       -0.48283
P         -1.95225        0.31013        0.01544
C         -0.55566        0.39280       -2.44036
O         -0.72923       -0.12261       -3.45408
C         -4.21994        1.67986        1.04428
H         -3.81114        1.51040        2.04189
C         -4.07614        1.40233       -1.34749
H         -3.54996        1.02584       -2.22996
C         -5.40789        2.39005        0.87983
H         -5.92463        2.78230        1.76007
C         -5.26757        2.09792       -1.49996
H         -5.67357        2.25702       -2.50278
C         -5.95556        2.60614       -0.38803
C         -7.24285        3.35498       -0.56644
H         -8.02399        2.70070       -0.98591
H         -7.61451        3.75380        0.38744
H         -7.12020        4.19818       -1.26401
C         -3.54227       -1.84306       -0.49741
C         -4.28436       -1.89875        0.68449
H         -3.92188       -1.39025        1.57798
C         -4.00087       -2.48775       -1.64726
H         -3.40065       -2.42087       -2.55667
C         -5.48899       -2.59815        0.70906
H         -6.09067       -2.65367        1.61795
C         -5.19976       -3.19273       -1.62190
H         -5.57838       -3.70499       -2.50818
C         -5.93249       -3.23721       -0.44129
F         -7.08495       -3.90779       -0.41362
C         -0.90224       -0.50778        2.30831
C         -0.78253       -1.89633        2.36870
H         -1.52767       -2.52096        1.87364
C          0.04389        0.31045        2.92270
H         -0.07286        1.39373        2.86526
C          0.28897       -2.47103        3.04265
H          0.41453       -3.55317        3.09311
C          1.12358       -0.26139        3.58995
H          1.89194        0.34872        4.06758
C          1.23547       -1.64468        3.63386
F          2.28375       -2.19393        4.24880
C          0.97467       -2.27352       -0.40106
H          0.09526       -1.97635       -0.97840
C          2.95173       -1.69675        0.85635
H          3.63714       -0.94180        1.24370
C          1.20128       -3.62049       -0.12881
H          0.50322       -4.37026       -0.51107
C          3.16177       -3.04104        1.13390
H          4.01488       -3.33354        1.75175
C          2.29626       -4.02695        0.64005
C          2.53739       -5.47422        0.95183
H          2.48649       -5.65859        2.03723
H          1.79793       -6.12340        0.46284
H          3.53949       -5.78940        0.62114
C          3.80424       -0.27916       -1.86454
C          4.96649        0.23226       -1.28548
H          4.93961        1.20333       -0.78915
C          3.82472       -1.52201       -2.49940
H          2.90179       -1.90383       -2.93867
C          6.14804       -0.50423       -1.33289
H          7.07060       -0.12861       -0.88673
C          5.00152       -2.26151       -2.54841
H          5.04110       -3.23843       -3.03329
C          6.14955       -1.74399       -1.95952
F          7.27875       -2.45312       -1.99947
C          2.65109        2.48992        0.74992
C          2.89178        3.28526       -0.37545
H          3.02565        2.81152       -1.34931
C          2.48466        3.08591        2.00140
H          2.30795        2.44734        2.86747
C          2.94282        4.67142       -0.24921
H          3.12034        5.31199       -1.11487
C          2.54472        4.47046        2.13246
H          2.41737        4.95686        3.10119
C          2.76682        5.24902        1.00211
F          2.81766        6.57511        1.12360
