60
Cat353.ts34.5.log	Energy: -2045233.5069601
C         -0.61784       -3.71863       -0.62655
H         -1.55988       -4.08390       -1.04481
H          0.26063       -3.90015       -1.25164
C         -0.47692       -3.65692        0.78141
H         -1.32425       -3.91384        1.42489
H          0.48548       -3.93283        1.22591
H          0.22302       -2.10919        1.02763
Co        -0.75502       -1.79429       -0.02884
C          2.21641       -0.08957       -0.32227
O          1.67803       -2.12004       -2.01066
O          0.57547        0.17464       -2.30536
C         -1.57770        1.36871        0.56290
O         -2.56938       -0.35248        2.25014
O         -0.03385        0.08797        2.38037
P         -1.22105       -0.25351        1.29930
P          0.84770       -0.97988       -1.15012
C         -2.24487       -1.66224       -0.91696
O         -3.22686       -1.58931       -1.51820
C          2.75231        1.10717       -0.81006
H          2.33691        1.53864       -1.72257
C          2.73854       -0.62244        0.86085
H          2.31198       -1.54059        1.27252
C          3.78369        1.74914       -0.12928
H          4.18393        2.68884       -0.52108
C          3.77471        0.01758        1.53181
H          4.16337       -0.41423        2.45848
C          4.31601        1.21635        1.05043
C          5.44507        1.89448        1.76946
H          5.50984        2.96007        1.50721
H          5.33387        1.81474        2.86105
H          6.41129        1.43142        1.50764
C          2.78772       -1.78940       -2.81242
H          2.53350       -1.00857       -3.54770
H          3.63630       -1.43452       -2.20272
H          3.08990       -2.70069       -3.34757
C         -0.67693        0.28496       -2.94050
H         -1.02658       -0.68145       -3.33755
H         -1.44047        0.68413       -2.25376
H         -0.55407        0.98732       -3.77713
C         -2.87691        1.72379        0.18874
H         -3.71222        1.07885        0.46910
C         -0.51330        2.20045        0.19599
H          0.50894        1.92714        0.46848
C         -3.10247        2.88726       -0.54207
H         -4.12355        3.14890       -0.83370
C         -0.74872        3.36304       -0.52938
H          0.09568        3.99845       -0.81132
C         -2.04549        3.72637       -0.91488
C         -2.29521        4.99207       -1.68115
H         -3.21750        4.92873       -2.27622
H         -2.40473        5.85018       -0.99678
H         -1.46183        5.22294       -2.36074
C         -3.01586       -1.61173        2.69829
H         -2.99037       -2.35051        1.88051
H         -2.39635       -1.98743        3.53047
H         -4.04918       -1.49073        3.05193
C         -0.20691        1.06366        3.38533
H         -0.41729        2.05723        2.95600
H         -1.03237        0.79500        4.06321
H          0.73258        1.11169        3.95268
