78
Cat301.ts34.5.log	Energy: -2661567.3931917
C          0.60330       -0.16851        3.51760
H          0.29318       -1.03275        4.11212
H          1.65424        0.10913        3.64749
C         -0.34426        0.84379        3.23782
H         -1.38871        0.72455        3.54578
H         -0.01562        1.88915        3.26761
H         -0.10747        1.13945        1.56905
Co        -0.00093       -0.32835        1.59422
C          1.66321        1.65637       -0.50395
C          3.37746        0.21347        1.30405
C          2.32820       -1.10438       -0.89243
C         -2.00069       -1.52335       -0.86044
C         -3.32999       -0.17858        1.27001
C         -1.96661        1.33760       -0.69777
P         -1.73853       -0.16280        0.34242
P          1.76687        0.07058        0.41421
C         -0.12296       -2.04718        1.81148
O         -0.18774       -3.19007        1.96480
C          1.33542        1.71491       -1.86275
H          1.25980        0.79468       -2.44591
C          1.74480        2.85984        0.21311
H          1.97267        2.84052        1.28249
C          1.09922        2.93335       -2.49574
H          0.82515        2.98540       -3.55069
C          1.53542        4.08516       -0.40907
H          1.60424        5.02614        0.13997
C          1.20485        4.10445       -1.75975
F          0.96190        5.27151       -2.35160
C          3.65870       -0.78985        2.24214
H          2.90861       -1.55967        2.44262
C          4.35033        1.18752        1.05315
H          4.16436        1.97382        0.31844
C          4.87624       -0.82670        2.91292
H          5.10633       -1.60604        3.64160
C          5.57039        1.17078        1.72617
H          6.33579        1.92680        1.54131
C          5.81719        0.16228        2.64865
F          6.98069        0.14173        3.29409
C          3.38354       -0.78088       -1.75973
H          3.86405        0.19828       -1.69244
C          1.75253       -2.37340       -0.98306
H          0.94032       -2.65026       -0.31127
C          3.83575       -1.68989       -2.70774
H          4.65295       -1.44985       -3.39034
C          2.20147       -3.30206       -1.92125
H          1.75521       -4.29500       -1.99859
C          3.23415       -2.94440       -2.77542
F          3.66557       -3.81839       -3.68052
C         -2.95487       -2.52636       -0.65757
H         -3.62809       -2.47385        0.20037
C         -1.14912       -1.62120       -1.96962
H         -0.38541       -0.85889       -2.13641
C         -3.06205       -3.59949       -1.53972
H         -3.79943       -4.38990       -1.38924
C         -1.25411       -2.67772       -2.86686
H         -0.59385       -2.76046       -3.73183
C         -2.21136       -3.65965       -2.63562
F         -2.31187       -4.67977       -3.48373
C         -3.37698       -0.83311        2.50637
H         -2.46354       -1.28629        2.89960
C         -4.49876        0.41431        0.77499
H         -4.48118        0.93879       -0.18294
C         -4.56363       -0.91633        3.23004
H         -4.61418       -1.42732        4.19316
C         -5.68963        0.34878        1.49144
H         -6.60737        0.80927        1.12107
C         -5.70604       -0.31940        2.71118
F         -6.84206       -0.38315        3.39921
C         -1.68571        2.58432       -0.12360
H         -1.29133        2.63402        0.89374
C         -2.46885        1.30364       -2.00444
H         -2.71452        0.34841       -2.47172
C         -1.89414        3.76446       -0.82659
H         -1.66969        4.73900       -0.39024
C         -2.66720        2.47775       -2.72836
H         -3.05043        2.46044       -3.75026
C         -2.37550        3.69551       -2.12872
F         -2.55671        4.81990       -2.81433
