62
Cat321.ts34.5.log	Energy: -2482446.0923227
C         -4.13660        0.97191       -0.47388
H         -4.92676        0.51578        0.12913
H         -4.15979        2.06729       -0.46375
C         -3.72572        0.30591       -1.66485
H         -4.15890       -0.67000       -1.91081
H         -3.54761        0.91299       -2.56109
H         -2.09213        0.34293       -1.59965
Co        -2.36718        0.09062       -0.15540
C          0.67529        1.61372       -0.37516
C         -1.53476        3.35640       -0.64233
C         -0.84476        2.31615        1.95562
C          0.47203       -1.68034        0.31828
C         -1.88810       -3.25110        0.14691
C         -0.81146       -2.06114       -2.26177
P         -1.17583       -1.66721       -0.49477
P         -1.06208        1.77319        0.20322
C         -2.88656       -0.43705        1.40049
O         -3.19726       -0.77098        2.46568
C          1.78935        1.66265        0.46894
H          1.66703        1.82955        1.53982
C          0.89233        1.37948       -1.74114
H          0.03606        1.31891       -2.41970
C          3.07863        1.47142       -0.02406
H          3.93757        1.47247        0.64906
C          2.17264        1.20365       -2.25304
H          2.33374        1.02073       -3.31693
C          3.26239        1.23871       -1.38281
Cl         4.85659        0.93445       -1.99314
H         -2.57545        3.56160       -0.34277
C         -0.64575        4.56348       -0.40179
H          0.40032        4.35282       -0.67282
H         -0.65999        4.87745        0.65310
H         -1.58440        3.10781       -1.71565
H         -0.97991        5.42477       -1.00129
H         -0.07737        3.10466        2.02002
C         -2.14859        2.78287        2.58519
H         -2.93039        2.01415        2.50636
H         -2.52831        3.69673        2.10252
H         -0.45415        1.43839        2.49645
H         -2.00678        3.01040        3.65247
C          0.50675       -1.50493        1.71000
H         -0.42661       -1.41570        2.27295
C          1.68731       -1.75761       -0.36861
H          1.70754       -1.86505       -1.45360
C          1.71272       -1.41636        2.39636
H          1.73303       -1.27398        3.47814
C          2.90403       -1.66241        0.30297
H          3.84636       -1.68859       -0.24656
C          2.90881       -1.48704        1.68272
Cl         4.41733       -1.29779        2.51521
H         -1.94624       -3.12968        1.24037
C         -3.26969       -3.52996       -0.42188
H         -3.23866       -3.70927       -1.50838
H         -3.93563       -2.67132       -0.24643
H         -1.18677       -4.07885       -0.04440
H         -3.72045       -4.41759        0.04702
H         -0.11592       -1.27448       -2.59827
C         -0.29665       -3.45256       -2.59678
H         -1.05988       -4.22124       -2.40649
H          0.59351       -3.72406       -2.01052
H         -1.75415       -1.85667       -2.79392
H         -0.02654       -3.51964       -3.66212
