78
Cat326.ts34.5.log	Energy: -2769800.0436301
C          1.49612        0.57308        3.00630
H          1.04786        0.32795        3.97318
H          2.43811        0.04855        2.81024
C          1.31110        1.87781        2.48496
H          0.68292        2.58970        3.02780
H          2.14855        2.35565        1.96402
H          0.89033        1.56589        0.85157
Co         0.11733        0.51043        1.52924
C          2.89454       -0.43531       -0.06828
O          1.65590       -2.36637        1.14231
O          0.54929       -1.44328       -0.98422
C         -2.75399        0.31232       -0.25754
O         -2.03033        2.70595        0.40929
O         -0.53843        1.53262       -1.30232
P         -1.25778        1.27320        0.15337
P          1.21359       -0.93614        0.44340
C         -1.07354       -0.23400        2.56862
O         -1.84331       -0.76654        3.24089
C          3.00417        0.74467       -0.81758
H          2.09670        1.29533       -1.08693
C          4.05202       -1.13903        0.27219
H          3.96361       -2.05502        0.85897
C          4.24651        1.20566       -1.23656
H          4.33929        2.11800       -1.82801
C          5.30430       -0.68151       -0.13462
H          6.21372       -1.22413        0.12905
C          5.39225        0.48660       -0.88874
Cl         6.94463        1.06072       -1.39878
C          0.70414       -3.13444        1.88566
H         -0.30652       -2.72874        1.69671
C          1.01184       -3.01819        3.36378
H          0.95838       -1.97116        3.68630
H          2.02447       -3.39730        3.57184
H          0.29040       -3.59982        3.95647
C          0.76875       -4.56398        1.38699
H          0.53081       -4.62210        0.31588
H          1.77932       -4.97418        1.53709
H          0.05398       -5.19611        1.93452
C          1.12149       -2.44483       -1.83259
H          1.83677       -3.03955       -1.23752
C          1.84511       -1.79997       -2.99910
H          2.68393       -1.17966       -2.65832
H          1.15199       -1.16382       -3.56964
H          2.24180       -2.57298       -3.67448
C         -0.01566       -3.33896       -2.28818
H         -0.53482       -3.78490       -1.42723
H         -0.75003       -2.75554       -2.86497
H          0.35905       -4.15303       -2.92642
C         -4.03826        0.86528       -0.25488
H         -4.16392        1.91980       -0.00529
C         -2.59528       -1.04712       -0.55650
H         -1.59142       -1.47834       -0.56681
C         -5.14776        0.08073       -0.56033
H         -6.15284        0.50567       -0.55867
C         -3.69523       -1.83801       -0.86807
H         -3.57538       -2.89568       -1.10894
C         -4.96816       -1.26663       -0.86781
Cl        -6.34351       -2.24683       -1.24990
C         -1.42344        3.77137        1.14300
H         -0.32648        3.65416        1.09561
C         -1.87269        3.69429        2.58799
H         -1.58940        2.72135        3.01467
H         -2.96685        3.79618        2.65280
H         -1.41074        4.49305        3.18781
C         -1.81392        5.06754        0.46471
H         -1.47092        5.08187       -0.57962
H         -2.90827        5.18698        0.46850
H         -1.37007        5.92708        0.98866
C         -1.25224        2.00234       -2.44959
H         -2.25144        2.34847       -2.13124
C         -1.40113        0.86659       -3.44178
H         -1.96197        0.03215       -2.99928
H         -0.40936        0.49557       -3.74046
H         -1.93458        1.20619       -4.34227
C         -0.48137        3.17968       -3.01135
H         -0.37954        3.97073       -2.25488
H          0.52838        2.86336       -3.31599
H         -0.99305        3.59995       -3.89005
