82
Cat340.ts34.5.log	Energy: -4206776.3431895
C         -0.25651        1.55712       -3.80113
H         -0.61121        1.02524       -4.68740
H         -0.86982        2.42515       -3.53578
C          1.13261        1.58528       -3.51821
H          1.82569        1.01313       -4.14237
H          1.56493        2.51520       -3.13025
H          1.17284        1.22853       -1.86599
Co         0.15313        0.25873       -2.30445
C         -0.81899        2.88646       -0.55701
O         -2.80809        1.47014       -1.46075
O         -1.45428        0.42981        0.47414
C          0.69569       -2.61267       -0.70347
O          2.86587       -1.43536       -1.53404
O          1.62316       -0.22872        0.36841
P          1.32722       -0.95447       -1.10140
P         -1.22431        1.16726       -1.00998
C         -0.55052       -1.06387       -3.21423
O         -1.05114       -1.92220       -3.79209
C          0.37203        3.08604        0.15469
H          0.97736        2.22192        0.44600
C         -1.58949        3.98882       -0.93556
H         -2.52094        3.83176       -1.48243
C          0.77592        4.36790        0.50744
H          1.69138        4.53267        1.07804
C         -1.18224        5.27918       -0.60331
H         -1.77440        6.14729       -0.89742
C         -0.00461        5.46009        0.12038
Cl         0.50085        7.05852        0.54352
C         -3.83071        0.58022       -1.28032
C         -5.00139        1.06496       -0.69483
H         -5.05806        2.12029       -0.42417
C         -3.72633       -0.76670       -1.62785
H         -2.82819       -1.14341       -2.11521
C         -6.05114        0.20047       -0.41293
H         -6.95778        0.56634        0.07110
C         -4.77490       -1.63738       -1.33972
H         -4.69822       -2.69519       -1.59676
C         -5.92572       -1.15463       -0.72065
Cl        -7.21082       -2.24679       -0.32249
C         -2.46614        0.66840        1.36950
C         -3.22507       -0.42996        1.77798
H         -2.98796       -1.41722        1.38041
C         -2.75215        1.93905        1.86829
H         -2.14585        2.79447        1.57371
C         -4.29761       -0.25994        2.64299
H         -4.91101       -1.11096        2.94215
C         -3.82967        2.11366        2.73382
H         -4.07061        3.10480        3.12139
C         -4.60645        1.01894        3.10618
Cl        -5.96898        1.24656        4.15167
C          1.42440       -3.78790       -0.90896
H          2.44043       -3.72966       -1.30154
C         -0.61495       -2.68889       -0.21544
H         -1.18450       -1.76942       -0.06258
C          0.85778       -5.02530       -0.61701
H          1.41593       -5.94888       -0.77837
C         -1.18469       -3.91886        0.08979
H         -2.20275       -3.98625        0.47764
C         -0.44237       -5.08327       -0.11489
Cl        -1.14745       -6.61754        0.25215
C          4.01494       -0.73459       -1.29806
C          5.06411       -1.41416       -0.67729
H          4.92914       -2.46246       -0.40668
C          4.15571        0.60893       -1.64315
H          3.33980        1.12782       -2.14471
C          6.23984       -0.74500       -0.36371
H          7.05498       -1.26163        0.14493
C          5.33106        1.28463       -1.32400
H          5.44907        2.33963       -1.57641
C          6.36278        0.60949       -0.67522
Cl         7.80851        1.46069       -0.24350
C          2.54337       -0.60503        1.31255
C          3.47982        0.35348        1.70327
H          3.45196        1.34037        1.23899
C          2.55878       -1.87558        1.88638
H          1.80646       -2.61280        1.60813
C          4.46372        0.03466        2.62944
H          5.21548        0.77045        2.91853
C          3.54827       -2.20042        2.81199
H          3.57872       -3.19427        3.26137
C          4.50342       -1.25119        3.16938
Cl         5.75138       -1.66934        4.29562
