82
Cat309.ts34.5.log	Energy: -2850303.9087652
C          0.80291       -2.79447       -2.60976
H          0.59875       -2.62802       -3.67069
H          1.84904       -3.03153       -2.38755
C         -0.21143       -3.36400       -1.79652
H         -1.20847       -3.53836       -2.21333
H          0.07563       -4.11202       -1.04831
H         -0.14516       -2.41071       -0.44050
Co        -0.02660       -1.35373       -1.46865
C          2.89405       -1.83375        0.14239
O          2.50360        0.53311       -1.16391
O          1.21728        0.08424        1.05038
C         -1.88930        1.16921       -0.29516
O         -3.17402       -1.09561       -1.11756
O         -1.82416       -1.17311        1.08664
P         -1.70682       -0.63042       -0.48351
P          1.61798       -0.65156       -0.40592
C         -0.15391       -0.30093       -2.85441
O         -0.17876        0.41487       -3.75423
C          2.73923       -2.48164        1.37432
H          1.91893       -2.18991        2.03457
C          3.91424       -2.25334       -0.72272
H          4.04238       -1.77675       -1.69718
C          3.60732       -3.49877        1.75925
H          3.50451       -4.00997        2.71814
C          4.78928       -3.26834       -0.34920
H          5.59727       -3.59727       -1.00486
C          4.62695       -3.87387        0.89165
F          5.46194       -4.84268        1.25415
C          3.83804        0.82845       -1.21826
C          4.68580        0.81699       -0.10912
H          4.30650        0.54566        0.87520
C          4.33583        1.18324       -2.47433
H          3.64918        1.18846       -3.32294
C          6.02835        1.15443       -0.26162
H          6.70799        1.15193        0.59219
C          5.67526        1.52624       -2.62812
H          6.08229        1.80995       -3.60024
C          6.50928        1.50470       -1.51632
F          7.79475        1.82823       -1.65760
C          1.94103        1.04818        1.69263
C          1.98673        2.34661        1.17667
H          1.46329        2.56687        0.24607
C          2.59985        0.74487        2.88540
H          2.54940       -0.26896        3.28336
C          2.71062        3.33261        1.83835
H          2.77115        4.34994        1.44798
C          3.32139        1.73189        3.55393
H          3.84637        1.51941        4.48690
C          3.37348        3.01280        3.01806
F          4.06880        3.95573        3.65151
C         -1.46159        1.80164        0.87684
H         -1.07678        1.19982        1.70082
C         -2.30741        1.95112       -1.38133
H         -2.61904        1.48000       -2.31602
C         -1.48275        3.18918        0.98383
H         -1.14567        3.69814        1.88848
C         -2.33563        3.33735       -1.28544
H         -2.66713        3.96121       -2.11701
C         -1.92757        3.93795       -0.09886
F         -1.95215        5.26361       -0.00353
C         -4.34340       -0.40739       -1.30303
C         -4.96765        0.33189       -0.29673
H         -4.52327        0.39878        0.69576
C         -4.92273       -0.49070       -2.57090
H         -4.41537       -1.07553       -3.34025
C         -6.16543        0.98987       -0.56360
H         -6.66955        1.57414        0.20799
C         -6.12249        0.16095       -2.83881
H         -6.59281        0.10682       -3.82218
C         -6.72970        0.89860       -1.82930
F         -7.87651        1.52913       -2.08121
C         -2.98184       -1.32035        1.80046
C         -3.86803       -2.35480        1.48908
H         -3.63632       -3.02040        0.65722
C         -3.25732       -0.46113        2.86529
H         -2.55314        0.33317        3.11226
C         -5.04073       -2.51106        2.21986
H         -5.75353       -3.30384        1.98679
C         -4.42762       -0.61900        3.60482
H         -4.66449        0.04092        4.44117
C         -5.30989       -1.63765        3.26760
F         -6.43372       -1.78460        3.96662
