96
Cat361.ts34.5.log	Energy: -2436013.4459626
C         -0.67298       -0.01996       -3.57177
H         -0.43872       -0.87696       -4.21030
H         -1.71495        0.31029       -3.63910
C          0.33960        0.94307       -3.32261
H          1.35748        0.78259       -3.69477
H          0.06314        2.00457       -3.32880
H          0.14119        1.21326       -1.66695
Co         0.02338       -0.25032       -1.69794
C         -1.60569        1.73196        0.43082
C         -3.35648        0.21428       -1.26739
C         -2.16018       -1.06877        0.88384
C          1.69982       -1.36052        0.98646
C          3.34902       -0.51318       -1.17796
C          2.10678        1.44256        0.48632
P          1.72822       -0.13754       -0.38068
P         -1.70790        0.12301       -0.44694
C          0.13955       -1.95909       -1.98110
O          0.18951       -3.09569       -2.18780
C         -1.27487        1.85259        1.78175
H         -1.20640        0.95963        2.40573
C         -1.69301        2.90806       -0.33163
H         -1.93406        2.84472       -1.39684
C         -1.02992        3.10307        2.35024
H         -0.75543        3.16478        3.40692
C         -1.47364        4.15169        0.24425
H         -1.55810        5.05123       -0.37282
C         -1.12638        4.27389        1.59765
C         -0.84890        5.61987        2.19815
H         -1.69144        6.31205        2.04297
H         -0.66325        5.54849        3.27910
H          0.03844        6.08271        1.73650
C         -3.65437       -0.78883       -2.19951
H         -2.89389       -1.53723       -2.43926
C         -4.34223        1.15963       -0.97183
H         -4.14376        1.94799       -0.24210
C         -4.90110       -0.84468       -2.81076
H         -5.11159       -1.64219       -3.52927
C         -5.58711        1.10529       -1.59732
H         -6.34355        1.85598       -1.35059
C         -5.89028        0.10665       -2.52720
C         -7.22128        0.06074       -3.21874
H         -7.96414        0.68925       -2.70742
H         -7.13957        0.42212       -4.25743
H         -7.61463       -0.96613       -3.26471
C         -3.13373       -0.77308        1.84966
H         -3.62819        0.20174        1.84424
C         -1.58228       -2.33784        0.89319
H         -0.82785       -2.59602        0.15068
C         -3.48327       -1.71035        2.81363
H         -4.23937       -1.45560        3.56213
C         -1.95352       -3.28359        1.84703
H         -1.48461       -4.27091        1.82691
C         -2.89489       -2.98422        2.83302
C         -3.25549       -3.98134        3.89491
H         -4.33961       -3.99747        4.08358
H         -2.94116       -4.99731        3.61643
H         -2.76546       -3.73271        4.85143
C          2.16576       -2.66111        0.77162
H          2.66012       -2.91445       -0.16947
C          1.06475       -1.07559        2.20233
H          0.67518       -0.07345        2.38741
C          1.99751       -3.64395        1.74564
H          2.36380       -4.65602        1.55194
C          0.91678       -2.05463        3.17601
H          0.41123       -1.80493        4.11310
C          1.37166       -3.36154        2.96371
C          1.15690       -4.42251        4.00227
H          0.08261       -4.64315        4.11837
H          1.66501       -5.35990        3.73601
H          1.52732       -4.10183        4.98841
C          3.36332       -0.98770       -2.48993
H          2.41192       -1.11002       -3.01254
C          4.57175       -0.35848       -0.51061
H          4.59235        0.01746        0.51438
C          4.56556       -1.31068       -3.11906
H          4.55079       -1.68634       -4.14597
C          5.76663       -0.67862       -1.14159
H          6.70958       -0.55273       -0.60143
C          5.78704       -1.16082       -2.45919
C          7.08712       -1.48890       -3.13250
H          7.70055       -2.16032       -2.51172
H          6.92682       -1.97524       -4.10477
H          7.68262       -0.57791       -3.30707
C          2.77211        1.49818        1.71976
H          3.05431        0.57580        2.23151
C          1.77100        2.65109       -0.12903
H          1.25148        2.64062       -1.08867
C          3.06935        2.71873        2.31646
H          3.58311        2.73052        3.28215
C          2.07897        3.87042        0.46667
H          1.79872        4.79753       -0.04068
C          2.72438        3.92974        1.70443
C          3.01548        5.24064        2.37334
H          2.95923        6.07770        1.66294
H          2.28916        5.44057        3.17867
H          4.01600        5.24644        2.83138
