96
Cat377.ts34.5.log	Energy: -2684989.0281797
C         -0.03660        2.76331       -3.02056
H          0.27762        2.62566       -4.05904
H         -1.05504        3.15517       -2.92439
C          0.93704        3.14496       -2.05661
H          1.99079        3.19954       -2.35050
H          0.68242        3.90950       -1.31287
H          0.51946        2.18832       -0.77667
Co         0.41504        1.18811       -1.86036
C         -1.69525        0.94636        0.78752
C         -2.94890        1.44922       -1.79614
C         -1.91019       -1.21887       -1.20449
C          1.81674       -1.57018       -0.35894
C          3.63486        0.25008       -1.53733
C          2.32437        0.91553        0.97913
P          1.94743        0.23223       -0.70818
P         -1.47877        0.60091       -0.99838
C          0.56795        0.22202       -3.28836
O          0.62921       -0.41425       -4.25386
C         -1.15771        0.07538        1.74776
H         -0.69531       -0.86283        1.43764
C         -2.23217        2.15601        1.24252
H         -2.60540        2.89517        0.53097
C         -1.20038        0.38485        3.10274
H         -0.77984       -0.32267        3.82307
C         -2.27492        2.46267        2.60172
H         -2.70453        3.41624        2.92189
C         -1.76997        1.58014        3.56153
C         -1.83721        1.89126        5.02703
H         -2.06558        2.95147        5.20509
H         -2.62199        1.29434        5.52047
H         -0.88777        1.65656        5.53147
H         -2.84945        2.51701       -1.54944
H         -2.71632        1.37321       -2.86907
C         -4.33031        0.94332       -1.52536
C         -4.90649       -0.01512       -2.37237
H         -4.35842       -0.34792       -3.25797
C         -5.08573        1.37854       -0.42658
H         -4.67758        2.13036        0.24930
C         -6.16637       -0.55146       -2.12106
H         -6.61065       -1.30147       -2.77758
C         -6.34976        0.85824       -0.16231
H         -6.93665        1.19443        0.69430
C         -6.87289       -0.11086       -1.00965
F         -8.07918       -0.61630       -0.75822
H         -2.61633       -1.24098       -2.04945
H         -0.98192       -1.67941       -1.56428
C         -2.44080       -2.02337       -0.05431
C         -1.66433       -3.06597        0.46653
H         -0.69348       -3.28410        0.01823
C         -3.67758       -1.76070        0.54743
H         -4.30192       -0.95031        0.17367
C         -2.09146       -3.81774        1.55828
H         -1.48130       -4.62418        1.96962
C         -4.12315       -2.50513        1.63502
H         -5.08546       -2.29934        2.10716
C         -3.32064       -3.52420        2.13292
F         -3.73863       -4.23324        3.18315
C          1.55612       -2.43082       -1.43669
H          1.39110       -2.02163       -2.43598
C          2.02614       -2.14495        0.89844
H          2.25103       -1.52134        1.76458
C          1.52223       -3.80989       -1.26196
H          1.32352       -4.45351       -2.12347
C          1.97305       -3.52746        1.07257
H          2.14047       -3.94634        2.06863
C          1.72337       -4.38712       -0.00031
C          1.62894       -5.87121        0.19263
H          2.13176       -6.19200        1.11575
H          0.57485       -6.18891        0.26159
H          2.07535       -6.41706       -0.65157
H          3.44547       -0.16138       -2.54041
H          3.87975        1.31349       -1.68194
C          4.72796       -0.49595       -0.83821
C          5.58395        0.13306        0.07596
H          5.50121        1.20848        0.24694
C          4.89746       -1.87319       -1.04607
H          4.25442       -2.39170       -1.75968
C          6.55830       -0.57741        0.77383
H          7.22654       -0.08571        1.48293
C          5.86375       -2.59988       -0.35913
H          5.99280       -3.67152       -0.52047
C          6.68126       -1.94209        0.55154
F          7.60719       -2.63236        1.21681
H          1.55089        0.50221        1.64228
H          3.29754        0.51728        1.30770
C          2.27661        2.41195        1.06112
C          3.30267        3.22516        0.56495
H          4.19182        2.77365        0.12214
C          1.15691        3.03852        1.62205
H          0.34523        2.42848        2.01998
C          3.21792        4.61432        0.61532
H          4.01601        5.25058        0.22892
C          1.05199        4.42507        1.67877
H          0.17694        4.91017        2.11504
C          2.08684        5.19939        1.17013
F          1.99690        6.52813        1.22029
