90
Cat303.ts34.5.log	Energy: -2511197.1065965
C         -0.72402        0.11213       -3.57504
H         -0.52201       -0.72576       -4.24890
H         -1.76052        0.46423       -3.60740
C          0.31198        1.04879       -3.31852
H          1.31772        0.88264       -3.71974
H          0.05578        2.11495       -3.28568
H          0.12918        1.26854       -1.65243
Co         0.01277       -0.19148       -1.72817
C         -1.62020        1.74159        0.43078
C         -3.38441        0.17233       -1.20151
C         -2.06189       -1.09947        0.89099
C          1.65252       -1.36131        0.95732
C          3.33819       -0.47306       -1.15620
C          2.05713        1.46325        0.50327
P          1.70349       -0.10932       -0.38741
P         -1.70787        0.12428       -0.43997
C          0.16781       -1.88319       -2.08754
O          0.25136       -3.00785       -2.34384
C         -1.18589        1.88656        1.75231
H         -1.04187        1.00386        2.37596
C         -1.80160        2.90399       -0.33587
H         -2.12691        2.82044       -1.37664
C         -0.92545        3.14265        2.29711
H         -0.56354        3.25564        3.32026
C         -1.56311        4.16578        0.19653
H         -1.70109        5.07247       -0.39541
C         -1.11299        4.26609        1.50822
F         -0.83600        5.47283        2.01037
C         -3.66178       -0.77370       -2.19595
H         -2.86839       -1.45076       -2.52393
C         -4.41224        1.02561       -0.78897
H         -4.22934        1.76528       -0.00587
C         -4.93040       -0.86257       -2.75822
H         -5.12486       -1.61461       -3.52827
C         -5.67793        0.93965       -1.36474
H         -6.46736        1.61736       -1.02709
C         -5.96106       -0.00192       -2.35973
C         -7.31625       -0.07447       -2.99977
H         -7.60938       -1.11494       -3.20419
H         -8.08845        0.38137       -2.36377
H         -7.32535        0.46051       -3.96427
C         -2.85266       -0.81575        2.01038
H         -3.29406        0.17628        2.13338
C         -1.56939       -2.39975        0.74096
H         -0.96081       -2.65086       -0.12709
C         -3.08239       -1.78811        2.98139
H         -3.68232       -1.53769        3.86101
C         -1.82902       -3.37516        1.69559
H         -1.41969       -4.37967        1.55816
C         -2.56431       -3.08163        2.84899
C         -2.76173       -4.12532        3.90815
H         -3.28727       -5.00661        3.50741
H         -1.78844       -4.47554        4.28790
H         -3.34353       -3.74024        4.75716
C          2.09397       -2.66538        0.70008
H          2.58050       -2.89815       -0.25019
C          1.02514       -1.09986        2.18231
H          0.65918       -0.09674        2.39954
C          1.91056       -3.68097        1.63574
H          2.24057       -4.70271        1.43975
C          0.85117       -2.09810        3.13395
H          0.35109       -1.90015        4.08323
C          1.28710       -3.38243        2.84037
F          1.08155       -4.35756        3.72906
C          3.38814       -0.87506       -2.49094
H          2.45299       -0.95564       -3.04962
C          4.53961       -0.37221       -0.44133
H          4.53006       -0.05334        0.60328
C          4.60667       -1.17926       -3.09794
H          4.62144       -1.49752       -4.14400
C          5.75023       -0.67443       -1.05008
H          6.67657       -0.59203       -0.47411
C          5.80733       -1.08365       -2.39144
C          7.12453       -1.39518       -3.03851
H          7.74849       -0.49034       -3.11998
H          7.69604       -2.12800       -2.44778
H          6.99118       -1.80282       -4.05014
C          2.66539        1.52095        1.76303
H          2.94735        0.60171        2.28032
C          1.73819        2.67401       -0.12343
H          1.27041        2.66281       -1.10929
C          2.89997        2.74409        2.38872
H          3.35766        2.75745        3.38191
C          1.98843        3.89098        0.49647
H          1.71139        4.81792       -0.01302
C          2.55425        3.95140        1.77548
C          2.74288        5.27071        2.46269
H          3.32867        5.96578        1.84115
H          1.76643        5.74626        2.64806
H          3.25781        5.15775        3.42681
