84
Cat357.ts34.5.log	Energy: -2337407.1644416
C          0.60326       -2.90557       -2.16481
H          0.13484       -2.94841       -3.15252
H          1.68628       -3.06486       -2.17369
C         -0.13932       -3.34053       -1.03964
H         -1.18140       -3.65649       -1.16440
H          0.38569       -3.91479       -0.26713
H          0.06443       -2.12811        0.10232
Co        -0.01440       -1.29465       -1.12016
C          1.64946        0.14514        1.47672
C          3.23763       -1.49378       -0.26260
C          2.45499        1.12102       -1.06187
C         -1.70461        1.41412       -0.20489
C         -3.36233       -0.74263       -1.09007
C         -2.26165       -0.85592        1.49825
P         -1.76702       -0.41565       -0.22172
P          1.76457       -0.39591       -0.28032
C         -0.21541       -0.46959       -2.62969
O         -0.31299        0.08353       -3.63782
C          2.13617        1.37277        1.93674
H          2.68366        2.03108        1.25974
C          0.94556       -0.66388        2.37873
H          0.54156       -1.61919        2.03899
C          1.89390        1.78645        3.24628
H          2.26721        2.76017        3.57645
C          0.71292       -0.25302        3.68499
H          0.13553       -0.89885        4.35253
C          1.16996        0.99115        4.14025
C          0.88459        1.44280        5.54210
H          1.20411        2.48135        5.70641
H         -0.19126        1.37570        5.76746
H          1.40755        0.80970        6.27721
C          3.80171       -1.85531       -1.49611
C          3.76648       -2.04754        0.90779
C          5.39201       -3.29153       -0.38117
C          4.83443       -2.94355        0.84690
C          4.87467       -2.73943       -1.55415
H          3.40031       -1.42487       -2.41800
H          5.30809       -3.00265       -2.52220
H          6.23062       -3.99047       -0.42645
H          5.23757       -3.36581        1.77083
H          3.34829       -1.76876        1.87755
C          1.56220        2.05196       -1.60426
C          3.82661        1.40926       -1.07870
C          3.39286        3.52440       -2.16569
C          4.29157        2.60138       -1.63066
C          2.02713        3.24734       -2.14799
H          0.49182        1.84452       -1.59712
H          1.31149        3.95867       -2.56727
H          3.75938        4.45768       -2.60047
H          5.36420        2.81061       -1.64112
H          4.53713        0.69624       -0.65451
C         -2.15416        2.14011       -1.31341
H         -2.69342        1.63153       -2.11614
C         -1.00320        2.09760        0.79944
H         -0.62259        1.55861        1.66860
C         -1.90239        3.50749       -1.41522
H         -2.25755        4.05167       -2.29479
C         -0.76255        3.46161        0.69231
H         -0.20362        3.96477        1.48632
C         -1.19752        4.19270       -0.42079
C         -0.88000        5.65306       -0.54928
H         -1.11993        6.20092        0.37485
H          0.19569        5.80120       -0.74214
H         -1.43537        6.11751       -1.37619
C         -3.36413       -1.59690       -2.19440
C         -4.56975       -0.17557       -0.66169
C         -5.74775       -1.30764       -2.44118
C         -5.75448       -0.45381       -1.33570
C         -4.55248       -1.87931       -2.86894
H         -2.41512       -2.03035       -2.51973
H         -4.54097       -2.54739       -3.73350
H         -6.67967       -1.52582       -2.96858
H         -6.69105       -0.00366       -0.99745
H         -4.58237        0.49103        0.20421
C         -2.09734       -2.18627        1.90370
C         -2.82770        0.05418        2.39800
C         -3.01023       -1.67329        4.07974
C         -3.19217       -0.35057        3.68159
C         -2.46955       -2.59385        3.18183
H         -1.66314       -2.90845        1.20880
H         -2.33228       -3.63615        3.47981
H         -3.29445       -1.98895        5.08652
H         -3.62281        0.37662        4.37446
H         -2.97534        1.09482        2.10309
