90
Cat341.ts34.5.log	Energy: -2963351.9622880
C          0.25767       -2.57406       -3.26976
H         -0.14036       -2.39429       -4.27238
H          1.32174       -2.83419       -3.26490
C         -0.59387       -3.15242       -2.28972
H         -1.65042       -3.31671       -2.52628
H         -0.20054       -3.93224       -1.62678
H         -0.22624       -2.25117       -0.95326
Co        -0.30722       -1.16412       -1.95415
C          1.83195       -0.77738        0.64351
C          3.07102       -1.10248       -1.97778
C          1.80003        1.44016       -1.29481
C         -1.95173        1.26196       -0.16912
C         -3.60223       -0.65651       -1.43888
C         -2.10373       -1.36661        0.96170
P         -1.89307       -0.50936       -0.67243
P          1.54516       -0.41530       -1.12991
C         -0.64539       -0.10534       -3.27981
O         -0.83288        0.60670       -4.17341
C          1.23141        0.01963        1.62985
H          0.67636        0.91573        1.34855
C          2.50487       -1.93264        1.05993
H          2.93813       -2.61296        0.32497
C          1.33074       -0.29958        2.98011
H          0.87018        0.33788        3.73652
C          2.61834       -2.26478        2.40773
H          3.14984       -3.16572        2.71875
C          2.03381       -1.44007        3.36672
Cl         2.16697       -1.84337        5.04499
H          2.81007       -1.01347       -3.04330
H          3.07409       -2.18215       -1.76372
C          4.40362       -0.47633       -1.71321
C          5.22738       -0.89082       -0.65671
H          4.91720       -1.72038       -0.02063
C          4.85556        0.57790       -2.52078
H          4.25296        0.89328       -3.37728
C          6.43659       -0.25067       -0.39493
H          7.05672       -0.59055        0.43803
C          6.06048        1.22491       -2.25769
H          6.38276        2.04981       -2.89738
C          6.85380        0.81844       -1.18646
H          7.79814        1.32541       -0.97596
H          0.83130        1.82273       -1.64050
H          2.49631        1.54665       -2.14147
C          2.26782        2.26503       -0.13098
C          3.50777        2.06794        0.48884
H          4.18233        1.29441        0.12240
C          1.42599        3.26243        0.37558
H          0.45699        3.42839       -0.09712
C          3.88240        2.83797        1.58672
H          4.85313        2.66233        2.05678
C          1.79598        4.03278        1.47593
H          1.11236        4.80086        1.84687
C          3.02834        3.81935        2.09038
H          3.32468        4.41642        2.95621
C         -1.88321        2.23426       -1.17862
H         -1.76899        1.93444       -2.22279
C         -2.09884        1.69579        1.15290
H         -2.17605        0.97719        1.96940
C         -1.96724        3.59098       -0.88451
H         -1.91281        4.33930       -1.67681
C         -2.15895        3.05182        1.46684
H         -2.26003        3.38046        2.50226
C         -2.09362        3.99401        0.44515
Cl        -2.12747        5.68115        0.83103
H         -3.72973       -1.72714       -1.66047
H         -3.50755       -0.14893       -2.41091
C         -4.73790       -0.09815       -0.63945
C         -5.09660        1.25216       -0.76247
H         -4.57355        1.88130       -1.48561
C         -5.44533       -0.88196        0.28255
H         -5.21031       -1.94378        0.38516
C         -6.10541        1.80370        0.02174
H         -6.36183        2.85957       -0.09339
C         -6.45749       -0.33391        1.06875
H         -6.99432       -0.96878        1.77778
C         -6.78719        1.01418        0.94691
H         -7.57898        1.44597        1.56342
H         -3.09569       -1.10948        1.36634
H         -1.34368       -0.92698        1.62357
C         -1.88677       -2.84956        0.90756
C         -0.69119       -3.38742        1.39821
H          0.05068       -2.72041        1.83929
C         -2.82728       -3.72741        0.35491
H         -3.77184       -3.34181       -0.03278
C         -0.43401       -4.75413        1.32571
H          0.50865       -5.14575        1.71603
C         -2.57547       -5.09592        0.28275
H         -3.32414       -5.76079       -0.15464
C         -1.37473       -5.61569        0.76353
H         -1.17649       -6.68841        0.70492
