80
Cat381.ts34.5.log	Energy: -2053681.3369592
C         -0.90525       -0.71526       -3.25543
H         -0.42961       -1.51367       -3.83252
H         -1.99743       -0.80873       -3.22921
C         -0.33701        0.59483       -3.31847
H          0.61048        0.72684       -3.85189
H         -1.00685        1.45113       -3.47383
H         -0.46111        1.08210       -1.77999
Co         0.01998       -0.29879       -1.53088
C         -2.39242        0.58643        0.79978
C         -3.00040       -1.77114       -0.80152
C         -0.95460       -1.86300        1.38867
C          2.46022       -0.24768        0.81400
C          2.91341        1.41406       -1.52414
C          0.94980        2.31904        0.55666
P          1.52033        0.81315       -0.39294
P         -1.54942       -0.82655       -0.06347
C          0.97679       -1.71561       -1.82415
O          1.56643       -2.66611       -2.11967
C         -2.20115        0.82414        2.17019
H         -1.63857        0.11290        2.77297
C         -3.15555        1.53081        0.06909
C         -3.42167        1.39120       -1.40060
H         -4.28576        0.73498       -1.59328
H         -2.55207        0.95646       -1.91112
H         -3.64397        2.36741       -1.85360
C         -2.71798        1.94690        2.81184
H         -2.53790        2.09049        3.87998
C         -3.67726        2.64783        0.73156
H         -4.25839        3.37084        0.15212
C         -3.46493        2.86974        2.08819
H         -3.87990        3.75632        2.57322
H         -3.18478       -1.19008       -1.71687
C         -2.56983       -3.16083       -1.25791
H         -3.33629       -3.59248       -1.92158
H         -1.62082       -3.12809       -1.81277
H         -2.44863       -3.85081       -0.40970
C         -4.30786       -1.79969       -0.01869
H         -4.58980       -0.80648        0.36032
H         -5.12176       -2.15240       -0.67415
H         -4.26588       -2.48244        0.83984
H         -0.38842       -1.11973        1.97161
C         -2.03314       -2.46264        2.28696
H         -1.57961       -2.81830        3.22690
H         -2.83059       -1.75276        2.54563
H         -2.50233       -3.33534        1.80956
C          0.06641       -2.92575        0.99405
H          0.95577       -2.48333        0.53384
H          0.39606       -3.46196        1.89846
H         -0.34191       -3.66896        0.29571
C          3.31904       -1.15512        0.16440
H          3.41587       -1.11501       -0.92123
C          2.32780       -0.35701        2.21978
C          1.45742        0.50285        3.09644
H          0.42276        0.56941        2.73949
H          1.83459        1.53187        3.17882
H          1.42490        0.08588        4.11207
C          4.03746       -2.13124        0.84020
H          4.68255       -2.81355        0.28261
C          3.06251       -1.35496        2.88249
H          2.95217       -1.43731        3.96718
C          3.90851       -2.23444        2.22141
H          4.45455       -2.99764        2.78053
H          3.03022        0.53837       -2.18477
C          2.45456        2.57267       -2.40580
H          3.14786        2.69126       -3.25374
H          1.44754        2.41866       -2.81285
H          2.45809        3.52294       -1.85181
C          4.26974        1.72884       -0.90020
H          4.63147        0.93196       -0.23731
H          5.01556        1.86019       -1.70158
H          4.24819        2.66276       -0.32310
H          0.35525        1.86324        1.35960
C          2.06570        3.15335        1.17753
H          1.65348        3.81529        1.95666
H          2.85802        2.54233        1.63275
H          2.53949        3.80091        0.42512
C         -0.02940        3.20149       -0.21166
H         -0.85472        2.61056       -0.62756
H         -0.46845        3.93857        0.47919
H          0.45046        3.75387       -1.03058
