88
Cat365.ts34.5.log	Energy: -2526153.5407554
C          0.92175       -2.48804       -2.89371
H          0.63830       -2.46177       -3.94927
H          2.00162       -2.42729       -2.72089
C          0.12613       -3.23335       -1.98426
H         -0.81189       -3.68379       -2.32411
H          0.62578       -3.82122       -1.20559
H          0.06333       -2.18517       -0.69021
Co        -0.19417       -1.22609       -1.78467
C          2.89440       -0.92028       -0.55660
O          1.86303        1.27299       -1.78907
O          0.86277        0.55087        0.51896
C         -2.29832        1.01894       -0.33071
O         -3.21731       -1.49515       -0.90934
O         -1.68146       -1.03042        1.09404
P         -1.78832       -0.71319       -0.54059
P          1.33186       -0.06895       -0.94801
C         -0.82923       -0.54215       -3.26116
O         -1.20191       -0.09459       -4.25334
C          2.92140       -1.80283        0.53290
H          2.06020       -1.87003        1.20314
C          3.98848       -0.88413       -1.42359
H          3.95965       -0.23564       -2.30224
C          4.03940       -2.59139        0.76843
H          4.04475       -3.26628        1.62918
C          5.10662       -1.68118       -1.18020
H          5.95752       -1.63778       -1.86572
C          5.15622       -2.54152       -0.07945
C          6.35939       -3.39542        0.19229
H          7.11270       -3.29739       -0.60161
H          6.83602       -3.11612        1.14579
H          6.08362       -4.45882        0.26994
C          2.39270        2.41119       -1.23619
C          3.76717        2.64304       -1.28568
H          4.41946        1.90983       -1.76029
C          1.54094        3.34606       -0.64533
H          0.46898        3.14587       -0.61803
C          4.28922        3.80161       -0.71339
H          5.36695        3.97867       -0.74810
C          2.07349        4.49439       -0.06833
H          1.40440        5.21057        0.41411
C          3.44863        4.72502       -0.09423
H          3.86406        5.62486        0.36450
C          1.43251        1.23285        1.55497
C          2.80522        1.34461        1.77695
H          3.51586        0.88295        1.09375
C          0.52410        1.83863        2.42789
H         -0.54168        1.73808        2.21243
C          3.25769        2.08163        2.87001
H          4.33392        2.17963        3.03111
C          0.99142        2.56491        3.51841
H          0.27549        3.04115        4.19295
C          2.36210        2.69279        3.74517
H          2.72991        3.26896        4.59684
C         -1.90766        1.95839       -1.28633
H         -1.30158        1.65077       -2.14036
C         -3.04170        1.44962        0.77843
H         -3.34039        0.73065        1.54278
C         -2.26237        3.29916       -1.14577
H         -1.94296        4.01969       -1.90342
C         -3.38569        2.78800        0.91298
H         -3.96465        3.10643        1.78451
C         -3.00352        3.73817       -0.04557
C         -3.37948        5.18087        0.11824
H         -2.98788        5.58756        1.06409
H         -2.98871        5.79647       -0.70360
H         -4.47392        5.30408        0.14384
C         -4.41319       -1.21795       -0.29883
C         -5.30208       -0.33836       -0.91692
H         -5.01467        0.12076       -1.86446
C         -4.74068       -1.82117        0.91607
H         -4.03277       -2.50766        1.38314
C         -6.52300       -0.05611       -0.31003
H         -7.21772        0.63485       -0.79343
C         -5.96444       -1.52988        1.51582
H         -6.22153       -2.00065        2.46781
C         -6.85693       -0.64667        0.90875
H         -7.81451       -0.42183        1.38363
C         -1.02691       -2.09087        1.63827
C         -1.22015       -3.39521        1.17459
H         -1.90433       -3.57530        0.34300
C         -0.16128       -1.84111        2.70513
H         -0.02418       -0.81209        3.04119
C         -0.52660       -4.44534        1.77409
H         -0.67425       -5.46324        1.40533
C          0.51709       -2.90058        3.30221
H          1.19567       -2.70025        4.13492
C          0.34458       -4.20475        2.83569
H          0.88338       -5.03216        3.30239
