94
Cat316.ts34.5.log	Energy: -2699858.4605542
C          0.78493       -0.07748       -3.39836
H          0.54144        0.74813       -4.07376
H          1.83015       -0.39949       -3.43914
C         -0.21356       -1.02980       -3.09342
H         -1.23408       -0.90621       -3.46916
H          0.07779       -2.08285       -3.00911
H         -0.10777       -1.20026       -1.38054
Co         0.07712        0.25103       -1.53087
C          1.41674       -1.42244        1.06062
C          3.20498       -0.87161       -1.14120
C          2.60434        1.16544        0.73118
C         -1.77530        1.63544        0.90688
C         -3.27874        0.63438       -1.31249
C         -2.20687       -1.19968        0.59554
P         -1.73535        0.30741       -0.36153
P          1.76730       -0.16233       -0.23657
C          0.14958        1.94371       -1.90631
O          0.25172        3.06035       -2.18804
C          1.57816       -1.17742        2.42876
H          2.01620       -0.23578        2.76502
C          0.84095       -2.64200        0.67385
H          0.66275       -2.84282       -0.38558
C          1.17162       -2.10857        3.38305
H          1.27394       -1.91198        4.45190
C          0.46294       -3.59637        1.60976
H          0.00501       -4.54006        1.31115
C          0.61948       -3.30820        2.95938
F          0.20816       -4.19595        3.86584
C          3.63505       -2.19346       -1.04812
H          3.16212       -2.85714       -0.32171
C          3.85164       -0.01658       -2.05869
O          3.40499        1.25197       -2.08258
C          3.82161        2.13101       -3.08658
H          4.89274        2.38278       -2.99347
H          3.22444        3.04304       -2.96215
H          3.63553        1.71405       -4.09188
C          4.67060       -2.67658       -1.84990
H          4.99059       -3.71692       -1.75912
C          4.88826       -0.49386       -2.86560
H          5.38511        0.16912       -3.57481
C          5.29205       -1.82485       -2.75761
H          6.10349       -2.19118       -3.39122
C          2.05518        2.44564        0.74822
H          1.12607        2.62135        0.20744
C          3.82038        0.94896        1.41857
O          4.31099       -0.30224        1.39401
C          5.55320       -0.58146        1.96965
H          6.35607        0.03220        1.52553
H          5.75859       -1.63919        1.76206
H          5.54544       -0.42449        3.06295
C          2.66667        3.49918        1.42725
H          2.20705        4.48935        1.42499
C          4.44406        2.00266        2.09550
H          5.38217        1.83912        2.62649
C          3.86283        3.27082        2.09722
H          4.36005        4.08431        2.63167
C         -2.65137        2.72364        0.83010
H         -3.39752        2.76681        0.03452
C         -0.80930        1.62820        1.92193
H         -0.08852        0.81046        1.97765
C         -2.57933        3.76780        1.74915
H         -3.25330        4.62462        1.69284
C         -0.73588        2.65380        2.85880
H          0.01927        2.65348        3.64659
C         -1.62576        3.71573        2.75756
F         -1.55618        4.71134        3.64139
C         -3.16384        0.97689       -2.65790
H         -2.15515        1.06646       -3.06883
C         -4.56886        0.51819       -0.75133
O         -4.62821        0.23527        0.56046
C         -5.86165       -0.00153        1.17392
H         -6.50323        0.89729        1.16888
H         -5.64087       -0.27837        2.21249
H         -6.40428       -0.83246        0.69047
C         -4.28716        1.19407       -3.45603
H         -4.17078        1.46535       -4.50716
C         -5.70032        0.71789       -1.54974
H         -6.70012        0.62499       -1.12454
C         -5.55217        1.05307       -2.89613
H         -6.44517        1.21051       -3.50639
C         -2.23196       -1.26407        1.98706
H         -1.98688       -0.37478        2.56788
C         -2.56763       -2.35473       -0.12922
O         -2.54883       -2.24037       -1.47223
C         -2.95254       -3.31406       -2.26992
H         -2.30478       -4.19756       -2.12950
H         -2.87160       -2.97608       -3.31063
H         -3.99878       -3.60249       -2.06706
C         -2.58776       -2.43392        2.65877
H         -2.58223       -2.45825        3.75025
C         -2.93845       -3.52661        0.53629
H         -3.22488       -4.41466       -0.02768
C         -2.94297       -3.56252        1.93047
H         -3.22371       -4.48531        2.44373
