104
Cat351.ts34.5.log	Energy: -2250902.0632717
C         -0.71166        2.76944       -1.82788
H         -0.78480        3.78538       -1.42859
H          0.01552        2.67606       -2.64262
C         -1.89137        1.97045       -1.87551
H         -2.81912        2.34821       -1.43344
H         -2.08607        1.38154       -2.78091
H         -1.30045        0.50811       -1.37919
Co        -0.62896        1.37785       -0.39124
C          0.95223       -1.39613       -1.43416
C          2.26412        1.01631       -2.22125
C          2.41909        0.14732        0.51527
C         -0.46285       -0.60326        2.32966
C         -2.98880        0.66267        1.99600
C         -2.21825       -1.56884        0.30761
P         -1.56959        0.01391        0.99427
P          1.20927        0.33063       -0.86326
C         -0.21637        2.59542        0.77159
O          0.12078        3.41162        1.52089
C          1.27402       -2.52639       -0.67643
H          1.80719       -2.42160        0.26965
C          0.25161       -1.59507       -2.63503
H         -0.03913       -0.73129       -3.24013
C          0.89368       -3.80334       -1.09485
H          1.14900       -4.66692       -0.47376
C         -0.11045       -2.86737       -3.05625
H         -0.65734       -2.98708       -3.99628
C          0.19320       -4.00076       -2.28647
C         -0.24790       -5.36572       -2.72590
H         -1.34591       -5.45967       -2.67963
H          0.04882       -5.56856       -3.76660
H          0.18037       -6.15325       -2.09026
H          3.06935        0.30435       -2.46653
H          1.62148        1.08676       -3.11500
C          2.82326        2.38977       -1.87551
H          2.01162        3.02056       -1.47492
H          3.55901        2.29556       -1.05798
C          3.47808        3.08891       -3.05816
H          2.73622        3.19751       -3.87067
H          4.27977        2.44829       -3.46938
C          4.04918        4.45694       -2.71245
H          3.24395        5.08691       -2.29515
H          4.78912        4.34462       -1.90008
C          4.69141        5.16161       -3.89630
H          5.09415        6.14643       -3.61476
H          3.96404        5.32009       -4.70886
H          5.52238        4.56881       -4.31189
H          2.50467        1.15293        0.95952
H          1.89944       -0.44578        1.28361
C          3.79530       -0.43809        0.23012
H          3.71082       -1.32784       -0.41700
H          4.40449        0.28563       -0.33791
C          4.52178       -0.81893        1.51372
H          3.90698       -1.55487        2.06452
H          4.58068        0.06533        2.17465
C          5.91673       -1.38645        1.29852
H          5.85159       -2.26211        0.62843
H          6.53239       -0.64465        0.75957
C          6.60751       -1.78230        2.59369
H          7.61303       -2.19201        2.41379
H          6.02877       -2.54817        3.13569
H          6.71683       -0.91718        3.26772
C          0.11518        0.32903        3.20577
H         -0.16363        1.38349        3.14508
C         -0.05605       -1.93720        2.43937
H         -0.47959       -2.70103        1.78678
C          1.07722       -0.05503        4.13115
H          1.51436        0.69899        4.79177
C          0.91998       -2.31582        3.36199
H          1.22666       -3.36461        3.41443
C          1.51585       -1.38382        4.21524
C          2.60926       -1.77735        5.16369
H          2.61333       -2.86073        5.34987
H          3.59721       -1.50846        4.75265
H          2.50999       -1.26233        6.13075
H         -3.54333       -0.19198        2.42128
H         -2.53870        1.19932        2.84779
C         -3.90209        1.60808        1.23172
H         -3.27878        2.40733        0.79681
H         -4.35744        1.08712        0.37189
C         -5.00029        2.21312        2.09318
H         -4.54175        2.73588        2.95254
H         -5.61719        1.40619        2.52982
C         -5.89735        3.18085        1.33380
H         -5.27348        3.98046        0.89681
H         -6.35013        2.65460        0.47456
C         -6.99116        3.79458        2.19248
H         -7.62119        4.48834        1.61534
H         -6.56534        4.35787        3.03848
H         -7.65069        3.01899        2.61447
H         -1.33822       -2.09991       -0.08988
H         -2.61857       -2.17222        1.14024
C         -3.24733       -1.44361       -0.80477
H         -4.17952       -0.99299       -0.42287
H         -2.86604       -0.75126       -1.57332
C         -3.55420       -2.78680       -1.45209
H         -3.97719       -3.47539       -0.69784
H         -2.60238       -3.24294       -1.77738
C         -4.49690       -2.69364       -2.64256
H         -5.45290       -2.24411       -2.32035
H         -4.07161       -1.99073       -3.38096
C         -4.75784       -4.03603       -3.30645
H         -5.43757       -3.94255       -4.16697
H         -5.21132       -4.75025       -2.60029
H         -3.82044       -4.48744       -3.67125
