84
Cat360.ts34.5.log	Energy: -3490694.5085044
C         -0.65346        0.01830       -3.60220
H         -0.49810       -0.86001       -4.23564
H         -1.66410        0.43517       -3.66586
C          0.43758        0.89467       -3.36906
H          1.43450        0.64907       -3.75060
H          0.25074        1.97529       -3.37892
H          0.25210        1.19521       -1.70611
Co         0.03461       -0.25429       -1.72951
C         -1.48125        1.87708        0.33782
C         -3.32181        0.39620       -1.29651
C         -2.17352       -0.89284        0.86888
C          1.54807       -1.43012        1.03262
C          3.31587       -0.78167       -1.10462
C          2.19137        1.31696        0.46402
P          1.70721       -0.25616       -0.36797
P         -1.67006        0.24950       -0.48898
C          0.05257       -1.96844       -2.01397
O          0.04099       -3.10575       -2.21884
C         -1.11851        2.03211        1.67972
H         -1.07581        1.16146        2.33594
C         -1.52689        3.02605       -0.46475
H         -1.79045        2.93856       -1.52303
C         -0.81078        3.28757        2.19813
H         -0.51765        3.37413        3.24815
C         -1.23918        4.28031        0.06272
H         -1.29527        5.16007       -0.58465
C         -0.86674        4.43697        1.40358
C         -0.51100        5.78042        1.96694
H         -0.76308        6.59092        1.26880
H         -1.03852        5.97009        2.91430
H          0.56861        5.84290        2.18065
C         -4.26850        1.37708       -0.98302
H         -4.02944        2.15804       -0.25762
C         -3.66221       -0.59389       -2.22692
H         -2.92935       -1.36447       -2.48105
C         -5.52405        1.37683       -1.58587
H         -6.26136        2.14406       -1.34371
C         -4.91603       -0.61346       -2.82808
H         -5.18037       -1.38783       -3.54994
C         -5.84103        0.37943       -2.50600
Cl        -7.40008        0.37408       -3.25942
C         -3.04226       -0.50731        1.89900
H         -3.43731        0.51090        1.93151
C         -1.72856       -2.21604        0.82974
H         -1.05839       -2.54065        0.03469
C         -3.41316       -1.40489        2.89466
H         -4.07504       -1.10055        3.70711
C         -2.11326       -3.13461        1.80165
H         -1.75475       -4.16387        1.76559
C         -2.93502       -2.71500        2.84223
Cl        -3.36555       -3.83214        4.09756
C          1.88799       -2.77487        0.85492
H          2.36001       -3.10132       -0.07515
C          0.93464       -1.05540        2.23567
H          0.64243       -0.01656        2.39428
C          1.62121       -3.71117        1.85264
H          1.89046       -4.75803        1.68750
C          0.68632       -1.99019        3.23215
H          0.19958       -1.67028        4.15768
C          1.01639       -3.34004        3.05778
C          0.69824       -4.34596        4.12361
H          1.18065       -4.08254        5.07813
H         -0.38700       -4.38625        4.31186
H          1.03270       -5.35402        3.84194
C          3.33956       -1.20997       -2.43342
H          2.40467       -1.21444       -2.99814
C          4.51222       -0.78044       -0.37577
H          4.52275       -0.44996        0.66471
C          4.52400       -1.63553       -3.03155
H          4.53931       -1.97362       -4.06884
C          5.70240       -1.19942       -0.95751
H          6.63477       -1.20027       -0.39065
C          5.70050       -1.62592       -2.28743
Cl         7.18082       -2.14868       -3.01544
C          2.84105        1.35289        1.70595
H          3.05247        0.42613        2.24289
C          1.93939        2.53055       -0.18357
H          1.43135        2.53161       -1.14908
C          3.20733        2.56009        2.29325
H          3.70148        2.58146        3.26584
C          2.30717        3.74548        0.38397
H          2.09581        4.68551       -0.12714
C          2.93195        3.75259        1.62768
Cl         3.36423        5.26202        2.36329
