82
Cat338.ts34.5.log	Energy: -3302474.6175673
C         -0.56117        3.04393       -1.78352
H          0.38385        3.41299       -2.19049
H         -1.39083        3.00731       -2.49457
C         -0.84097        3.19085       -0.41763
H         -0.13634        3.74402        0.21076
H         -1.88315        3.25262       -0.08556
H         -0.25163        1.82278        0.49045
Co        -0.34883        1.22217       -0.86293
C         -3.56491        0.81284       -0.00226
O         -2.09349       -1.36758       -0.63112
O         -1.85422       -0.17322        1.67591
C          2.06202       -1.03526       -0.01178
O          2.62252        0.81290       -1.87037
O          2.56373        1.43484        0.64188
P          1.63218        0.65633       -0.51594
P         -1.87409        0.14372        0.03584
C         -0.55451        0.52153       -2.43562
O         -0.69701        0.04777       -3.47368
C         -4.25648        1.23190        1.13754
H         -3.80385        1.09697        2.12134
C         -4.14864        0.99044       -1.26362
H         -3.61041        0.67968       -2.16398
C         -5.51930        1.80762        1.02454
H         -6.06648        2.13644        1.90950
C         -5.41416        1.54983       -1.38683
H         -5.87994        1.67732       -2.36507
C         -6.09257        1.95830       -0.23694
Cl        -7.66330        2.66609       -0.38218
C         -3.20812       -2.16007       -0.55114
C         -3.92203       -2.34748        0.63423
H         -3.61096       -1.83406        1.54416
C         -3.60109       -2.81098       -1.72126
H         -3.02531       -2.63998       -2.63288
C         -5.03454       -3.18601        0.64203
H         -5.61329       -3.34715        1.55318
C         -4.70725       -3.65437       -1.71278
H         -5.03379       -4.17483       -2.61482
C         -5.41400       -3.83006       -0.52844
F         -6.47702       -4.63338       -0.51679
C         -0.71451       -0.62207        2.29579
C         -0.43565       -1.98877        2.32218
H         -1.11014       -2.68382        1.81949
C          0.13606        0.28581        2.92348
H         -0.10547        1.34946        2.89617
C          0.70207       -2.45253        2.97343
H          0.95437       -3.51378        2.99524
C          1.28117       -0.17338        3.56837
H          1.97749        0.50936        4.05798
C          1.55270       -1.53516        3.57703
F          2.66556       -1.97191        4.16644
C          1.25951       -2.07131       -0.49982
H          0.35253       -1.84126       -1.06475
C          3.19332       -1.34197        0.75257
H          3.81561       -0.53596        1.14345
C          1.58858       -3.39909       -0.24804
H          0.96328       -4.21214       -0.61994
C          3.52431       -2.66496        1.02275
H          4.39400       -2.91150        1.63295
C          2.71724       -3.68416        0.51868
Cl         3.09976       -5.33219        0.88618
C          3.86516        0.23885       -1.94921
C          4.97411        0.85680       -1.36981
H          4.85148        1.80552       -0.84552
C          4.00889       -0.97569       -2.62141
H          3.12663       -1.44188       -3.06301
C          6.22723        0.25427       -1.45493
H          7.11107        0.71513       -1.01035
C          5.25782       -1.58161       -2.70823
H          5.39485       -2.53412       -3.22293
C          6.35275       -0.95951       -2.11917
F          7.55045       -1.53928       -2.19579
C          2.49032        2.79065        0.77526
C          2.61690        3.64608       -0.32397
H          2.77477        3.22513       -1.31842
C          2.29493        3.31890        2.05231
H          2.20856        2.63392        2.89631
C          2.52522        5.02441       -0.14539
H          2.61226        5.71124       -0.98911
C          2.21277        4.69636        2.23537
H          2.06079        5.13141        3.22473
C          2.32230        5.53436        1.13112
F          2.23680        6.85237        1.30256
