82
Cat307.ts34.5.log	Energy: -2601337.6877092
C          0.90110       -2.27045       -2.86580
H          0.76128       -2.08161       -3.93364
H          1.95096       -2.33821       -2.56062
C         -0.06533       -3.04640       -2.17237
H         -0.98482       -3.35143       -2.68190
H          0.27546       -3.78164       -1.43462
H         -0.19149       -2.17587       -0.75412
Co        -0.23662       -1.06181       -1.72465
C          2.80488       -1.03016       -0.27352
O          1.72096        1.37497       -1.03105
O          0.70098        0.09181        0.99929
C         -2.19607        1.20492       -0.14111
O         -3.38062       -0.98407       -1.25268
O         -2.06917       -1.13428        0.94670
P         -1.91384       -0.53394       -0.59808
P          1.23893       -0.14404       -0.56797
C         -0.59451       -0.11822       -3.14866
O         -0.76408        0.51450       -4.09510
C          2.81151       -2.04462        0.69364
H          1.93102       -2.19786        1.32367
C          3.91061       -0.89124       -1.12227
H          3.91391       -0.13042       -1.90569
C          3.91784       -2.87393        0.84733
H          3.94010       -3.66613        1.59779
C          5.02382       -1.71362       -0.97634
H          5.89908       -1.61035       -1.61994
C          5.01482       -2.68995        0.01301
F          6.07735       -3.47719        0.15670
C          2.88951        2.08121       -0.93915
C          3.72316        2.06859        0.17980
H          3.47319        1.46429        1.05074
C          3.21486        2.86309       -2.05034
H          2.54126        2.84943       -2.90947
C          4.88269        2.84174        0.17407
H          5.53044        2.82867        1.05375
C          4.37348        3.63418       -2.04124
H          4.62004        4.24515       -2.91295
C          5.21523        3.62571       -0.92888
H          6.12516        4.22951       -0.92153
C          1.15877        0.98720        1.92167
C          0.77358        2.32603        1.83240
H          0.12661        2.63703        1.01163
C          1.97416        0.55135        2.96785
H          2.25986       -0.49989        3.02144
C          1.23128        3.23418        2.78205
H          0.93678        4.28338        2.70516
C          2.42258        1.47030        3.91595
H          3.06452        1.13090        4.73245
C          2.05989        2.81321        3.82287
H          2.41831        3.53085        4.56397
C         -2.87319        1.56289        1.03286
H         -3.24111        0.78397        1.70151
C         -1.70656        2.21132       -0.98076
H         -1.15054        1.95477       -1.88313
C         -3.06811        2.90024        1.35701
H         -3.59023        3.19750        2.26798
C         -1.89907        3.55461       -0.66832
H         -1.51840        4.35074       -1.31012
C         -2.58006        3.87947        0.49852
F         -2.76087        5.16013        0.80815
C         -4.58241       -0.58800       -0.72025
C         -5.22807        0.52470       -1.25920
H         -4.75405        1.06130       -2.08301
C         -5.15292       -1.29776        0.33657
H         -4.63153       -2.16513        0.74423
C         -6.45066        0.93182       -0.73181
H         -6.95505        1.80486       -1.15256
C         -6.37659       -0.88108        0.85754
H         -6.82471       -1.43562        1.68555
C         -7.02720        0.23343        0.32909
H         -7.98541        0.55611        0.74218
C         -1.56763       -2.33095        1.35877
C         -1.88513       -3.52143        0.70128
H         -2.53645       -3.49380       -0.17482
C         -0.73767       -2.34013        2.48103
H         -0.50778       -1.39148        2.96773
C         -1.35173       -4.72319        1.16476
H         -1.59601       -5.65341        0.64631
C         -0.21729       -3.54782        2.93867
H          0.43056       -3.55528        3.81894
C         -0.51529       -4.74210        2.27981
H         -0.10115       -5.68651        2.63935
