54
Cat324.ts34.5.log	Energy: -2572573.5996333
C         -0.50061       -3.72650        0.85873
H          0.33502       -4.37433        1.13655
H         -1.23546       -3.57172        1.65323
C         -0.89998       -3.67473       -0.49694
H         -0.33915       -4.23329       -1.25251
H         -1.96837       -3.61012       -0.72971
H         -1.06143       -1.98504       -0.80484
Co         0.14774       -1.98935        0.04606
C         -2.14804        0.41375        0.75898
O         -1.54653       -1.38174        2.66111
O          0.05223        0.56140        2.11224
C          2.04642        0.57377       -0.95471
O          1.53291       -1.24967       -2.78437
O         -0.27952        0.41921       -2.04865
P          0.80081       -0.65271       -1.43596
P         -0.80112       -0.65227        1.38153
C          1.74566       -2.37687        0.61885
O          2.78670       -2.64397        1.03716
C         -2.01570        1.79364        0.59088
H         -1.09974        2.28279        0.92631
C         -3.33352       -0.21002        0.35090
H         -3.44923       -1.29031        0.48117
C         -3.03836        2.54031        0.01008
H         -2.93713        3.61783       -0.13033
C         -4.36921        0.52382       -0.21655
H         -5.29697        0.04237       -0.52992
C         -4.20869        1.89927       -0.39273
Cl        -5.48088        2.81883       -1.12368
C         -2.22573       -0.63263        3.64662
H         -1.59375        0.18050        4.03733
H         -3.15502       -0.19230        3.24765
H         -2.47841       -1.32034        4.46544
C          1.36288        0.31197        2.57665
H          1.39743       -0.56131        3.24825
H          2.06190        0.14699        1.74256
H          1.68250        1.20286        3.13409
C          3.37840        0.17106       -0.81154
H          3.67528       -0.84200       -1.09133
C          1.68388        1.87784       -0.60577
H          0.64947        2.19760       -0.73652
C          4.33473        1.04869       -0.31160
H          5.37470        0.73972       -0.19667
C          2.63138        2.76459       -0.10372
H          2.35594        3.78404        0.17109
C          3.95110        2.34093        0.04733
Cl         5.13134        3.43519        0.68548
C          1.41008       -2.60616       -3.14485
H          1.43239       -3.25431       -2.25402
H          0.47166       -2.79474       -3.69368
H          2.25692       -2.85268       -3.80029
C         -1.48101        0.01191       -2.65189
H         -1.31148       -0.27851       -3.70214
H         -1.94008       -0.83546       -2.11394
H         -2.17753        0.86094       -2.61778
