96
Cat362.ts34.5.log	Energy: -2436007.1221731
C          0.96771       -0.99949       -3.02619
H          0.53679       -0.59777       -3.94792
H          2.06091       -0.94999       -2.98027
C          0.30523       -2.03564       -2.34647
H         -0.64478       -2.42849       -2.72176
H          0.91099       -2.78152       -1.81990
H          0.17873       -1.46098       -0.64311
Co        -0.00733       -0.22637       -1.40202
C          2.67372       -1.30722        0.08686
C          3.13666        1.26504       -1.08480
C          1.66814        1.14832        1.35221
C         -2.63845        1.29355        0.08792
C         -3.24302       -1.23497       -1.05216
C         -1.65757       -1.12414        1.39958
P         -1.84100       -0.32693       -0.26067
P          1.79733        0.27540       -0.27250
C         -0.49930        1.18849       -2.29032
O         -0.81894        2.14265       -2.85590
C          2.02905       -2.29687        0.84808
H          1.05146       -2.09511        1.29235
C          3.88238       -1.64497       -0.52827
H          4.40113       -0.91198       -1.14983
C          2.59712       -3.55118        1.02330
H          2.07060       -4.29263        1.63174
C          4.43890       -2.91466       -0.36526
H          5.38239       -3.15016       -0.86562
C          3.81721       -3.88786        0.41882
C          4.41952       -5.24851        0.60963
H          5.31627       -5.38361       -0.01100
H          4.71065       -5.40966        1.66040
H          3.70297       -6.04317        0.34889
C          2.89710        1.67611       -2.40080
H          1.95483        1.39236       -2.87024
C          4.34354        1.64706       -0.45031
C          4.69586        1.30007        0.96796
H          4.38568        0.28434        1.24223
H          4.20136        1.98434        1.67556
H          5.78098        1.38366        1.12214
C          3.81274        2.45129       -3.10562
H          3.59207        2.76089       -4.12960
C          5.25415        2.42214       -1.18108
H          6.19019        2.71767       -0.69886
C          5.00216        2.82588       -2.48917
H          5.73719        3.43321       -3.02322
C          1.75410        0.44996        2.56259
H          1.95942       -0.62020        2.55644
C          1.42092        2.54296        1.38199
C          1.32619        3.39153        0.14580
H          0.79092        2.88531       -0.66959
H          2.32435        3.64751       -0.24186
H          0.79841        4.33035        0.36448
C          1.60233        1.09080        3.78783
H          1.67552        0.51301        4.71204
C          1.27007        3.16601        2.62753
H          1.07905        4.24280        2.64946
C          1.35673        2.45984        3.82361
H          1.23360        2.97921        4.77695
C         -3.94892        1.60680       -0.28386
H         -4.57711        0.85627       -0.76703
C         -1.85841        2.30168        0.66791
H         -0.82266        2.08928        0.93249
C         -4.46467        2.88182       -0.05569
H         -5.49191        3.10257       -0.35911
C         -2.38248        3.56443        0.90951
H         -1.75013        4.32329        1.37972
C         -3.69843        3.88191        0.54886
C         -4.24730        5.25954        0.77544
H         -3.99263        5.63327        1.77887
H         -3.82768        5.97389        0.04786
H         -5.34094        5.28177        0.66870
C         -3.12496       -1.40140       -2.43653
H         -2.22941       -1.00190       -2.91930
C         -4.40295       -1.70189       -0.39088
C         -4.66137       -1.52116        1.07803
H         -4.36130       -0.52594        1.43179
H         -4.10179       -2.25021        1.68437
H         -5.73062       -1.65562        1.29379
C         -4.10851       -2.04414       -3.18242
H         -3.99164       -2.15677       -4.26264
C         -5.37409       -2.35759       -1.15941
H         -6.27407       -2.72517       -0.65834
C         -5.23554       -2.53810       -2.53334
H         -6.01807       -3.05344       -3.09578
C         -1.60800       -0.33244        2.55254
H         -1.75884        0.74442        2.47689
C         -1.46641       -2.52159        1.51848
C         -1.54806       -3.46881        0.35668
H         -1.13567       -3.03424       -0.56075
H         -2.59395       -3.73694        0.13615
H         -1.00148       -4.39699        0.57532
C         -1.36953       -0.88485        3.80750
H         -1.32978       -0.23416        4.68372
C         -1.22510       -3.05470        2.79110
H         -1.07721       -4.13467        2.88216
C         -1.17342       -2.25605        3.93006
H         -0.98088       -2.70637        4.90677
