98
Cat344.ts34.5.log	Energy: -2778245.5546051
C          0.57988        3.63041       -1.22679
H          0.70589        4.49710       -0.57130
H          1.40498        3.50143       -1.93653
C         -0.73692        3.27855       -1.64310
H         -1.59506        3.82387       -1.23671
H         -0.89718        3.00059       -2.69225
H         -0.67426        1.62320       -1.50323
Co        -0.01153        1.99359       -0.23582
C          0.92742       -0.83795       -1.76165
C          2.97725        1.16106       -1.75213
C          2.37519       -0.26948        0.66711
C         -0.95803       -0.53902        1.76235
C         -2.91331        1.51055        1.55091
C         -2.46164       -0.26188       -0.69112
P         -1.55875        0.72594        0.57033
P          1.54167        0.56847       -0.74655
C          0.43160        2.71265        1.27857
O          0.76804        3.16881        2.28781
C          0.81067       -2.14769       -1.28222
H          1.23303       -2.42056       -0.31490
C          0.37087       -0.54883       -3.01807
H          0.43082        0.46858       -3.41478
C          0.11798       -3.12350       -1.99937
H          0.01039       -4.13530       -1.60421
C         -0.30830       -1.51193       -3.75377
H         -0.75134       -1.27127       -4.72158
C         -0.45412       -2.79576       -3.22448
Cl        -1.37593       -3.98174       -4.08814
H          2.55798        1.61924       -2.66426
H          3.57867        0.29723       -2.07536
C          3.80935        2.18394       -0.98899
H          3.12863        2.88920       -0.48327
H          4.37133        1.67768       -0.18360
C          4.79486        2.97668       -1.84997
H          4.20598        3.48474       -2.63764
C          5.48043        4.05098       -1.01432
H          4.74602        4.72251       -0.54323
H          6.15836        4.66602       -1.62626
H          6.08034        3.59622       -0.20824
C          5.81862        2.07829       -2.53490
H          6.52411        2.66845       -3.14016
H          5.34432        1.34392       -3.20318
H          6.40815        1.51943       -1.78815
H          1.57542       -0.81576        1.19100
H          2.64718        0.54676        1.35484
C          3.56117       -1.18542        0.38928
H          3.39993       -1.74878       -0.54535
H          4.46975       -0.58178        0.21615
C          3.83301       -2.18612        1.51712
H          2.91527       -2.79298        1.64421
C          4.96833       -3.12859        1.13843
H          4.75744       -3.65581        0.19462
H          5.13728       -3.88706        1.91840
H          5.91157       -2.57275        1.00522
C          4.10790       -1.49747        2.84871
H          4.28107       -2.23607        3.64587
H          3.26364       -0.86752        3.16575
H          5.00260       -0.85539        2.78114
C         -0.36680       -0.10457        2.95923
H         -0.36063        0.95741        3.21514
C         -0.91817       -1.90697        1.46803
H         -1.36671       -2.28829        0.55055
C          0.27137       -0.99375        3.81625
H          0.74492       -0.64283        4.73447
C         -0.27374       -2.80997        2.31211
H         -0.23039       -3.87213        2.06479
C          0.33348       -2.34516        3.47523
Cl         1.19280       -3.45052        4.49443
H         -2.44351        1.91712        2.46201
H         -3.61636        0.72588        1.87224
C         -3.60136        2.62767        0.78337
H         -2.82424        3.33822        0.45851
H         -4.05251        2.22758       -0.14412
C         -4.67960        3.37906        1.56643
H         -4.21142        3.75046        2.49762
C         -5.16149        4.58654        0.77063
H         -4.32755        5.25958        0.51773
H         -5.90744        5.16889        1.33329
H         -5.63208        4.26927       -0.17519
C         -5.84846        2.47956        1.95318
H         -6.61674        3.04190        2.50605
H         -5.53399        1.63934        2.59028
H         -6.32889        2.05689        1.05420
H         -1.69322       -0.90362       -1.15256
H         -2.72335        0.46340       -1.47675
C         -3.67434       -1.07712       -0.26076
H         -3.52194       -1.49163        0.75017
H         -4.55766       -0.41846       -0.18047
C         -3.99300       -2.23303       -1.21474
H         -3.10110       -2.88930       -1.24124
C         -5.16426       -3.05456       -0.69164
H         -4.97113       -3.43068        0.32537
H         -5.36698       -3.92142       -1.33929
H         -6.08350       -2.44646       -0.65247
C         -4.24444       -1.75655       -2.64058
H         -4.45571       -2.60589       -3.30750
H         -3.37347       -1.22765       -3.05534
H         -5.10872       -1.07178       -2.67936
