84
Cat389.ts34.5.log	Energy: -3490692.4842404
C          0.33873        3.19117       -0.73126
H          0.13753        3.95092        0.02928
H          1.31513        3.29930       -1.21696
C         -0.74656        2.66412       -1.46919
H         -1.77043        2.95297       -1.21076
H         -0.61727        2.48777       -2.54266
H         -0.48623        1.00569       -1.44587
Co        -0.07693        1.32701       -0.05856
C          1.71016       -1.06534       -1.76582
C          3.28386        1.14116       -0.79658
C          2.42337       -0.76747        1.01050
C         -2.02808       -0.64921        2.00466
C         -3.31292        1.34011        0.34539
C         -2.43448       -1.13195       -0.77076
P         -1.86195        0.19179        0.36776
P          1.74661        0.19226       -0.41625
C          0.12874        1.93919        1.54885
O          0.27544        2.38646        2.60354
C          1.70589       -2.43273       -1.45607
H          1.84833       -2.74884       -0.42199
C          1.53161       -0.66715       -3.11104
C          1.54008        0.77109       -3.54553
H          2.51799        1.04889       -3.97044
H          1.34797        1.45711       -2.71232
H          0.78191        0.94891       -4.32262
C          1.51673       -3.40058       -2.43817
H          1.50654       -4.45778       -2.16383
C          1.35522       -1.65744       -4.08515
H          1.22055       -1.34869       -5.12599
C          1.34113       -3.01156       -3.76278
H          1.19188       -3.75954       -4.54509
C          3.52745        2.30005       -0.04915
H          2.79498        2.62550        0.69381
C          4.23820        0.73678       -1.73601
H          4.07530       -0.17061       -2.32334
C          4.69170        3.03911       -0.22980
H          4.88122        3.93894        0.35753
C          5.40421        1.47222       -1.93549
H          6.14666        1.15706       -2.67060
C          5.62386        2.62227       -1.17983
Cl         7.07001        3.54269       -1.42257
C          3.66933       -1.40900        0.94915
H          4.26282       -1.36575        0.03294
C          1.70394       -0.82340        2.20445
H          0.73364       -0.33182        2.26960
C          4.17093       -2.10413        2.04250
H          5.13904       -2.60510        1.99322
C          2.19293       -1.51116        3.31278
H          1.61673       -1.55185        4.23845
C          3.42452       -2.15238        3.22254
Cl         4.04474       -3.01769        4.58764
C         -2.70056       -0.00872        3.05394
H         -3.20548        0.94105        2.87353
C         -1.39098       -1.88874        2.24709
C         -0.66365       -2.65876        1.18496
H         -0.20505       -1.99710        0.43962
H         -1.34640       -3.32656        0.63610
H          0.13110       -3.27295        1.63046
C         -2.74668       -0.56188        4.33006
H         -3.27614       -0.03835        5.12918
C         -1.45168       -2.42574        3.53876
H         -0.95365       -3.38063        3.72882
C         -2.11637       -1.77809        4.57541
H         -2.14048       -2.22388        5.57259
C         -4.48881        1.08834       -0.36917
H         -4.60739        0.15537       -0.92166
C         -3.19378        2.57186        1.00821
H         -2.27195        2.81433        1.54161
C         -5.52452        2.02036       -0.40572
H         -6.43540        1.81790       -0.97149
C         -4.22600        3.50254        0.99795
H         -4.12723        4.45239        1.52576
C         -5.39228        3.22104        0.28578
Cl        -6.67546        4.38104        0.24974
C         -3.46863       -2.00416       -0.40153
H         -3.94938       -1.89555        0.57448
C         -1.81927       -1.30893       -2.01055
H         -0.99039       -0.65952       -2.29785
C         -3.88041       -3.02449       -1.25161
H         -4.68232       -3.70613       -0.96349
C         -2.21580       -2.32837       -2.87192
H         -1.71446       -2.47125       -3.82989
C         -3.24632       -3.18140       -2.48596
Cl        -3.74019       -4.46109       -3.54146
