84
Cat384.ts34.5.log	Energy: -2242447.6047395
C          0.67422       -0.70721       -3.28280
H          0.17269       -0.10130       -4.04189
H          1.75514       -0.79866       -3.43420
C         -0.03234       -1.79883       -2.71111
H         -1.08543       -1.94809       -2.97213
H          0.50550       -2.74220       -2.55272
H          0.21994       -1.66236       -1.11124
Co         0.05863       -0.21823       -1.41806
C          2.51085       -1.00684        0.93273
O          3.06463        0.96779       -0.71703
O          1.20761        1.29218        1.06398
C         -2.18732        1.00865        0.82096
O         -2.99113       -0.49289       -1.30039
O         -1.98884       -1.61421        0.77455
P         -1.70310       -0.37674       -0.27164
P          1.68876        0.25212       -0.12806
C         -0.37999        1.34089       -2.03035
O         -0.62571        2.38582       -2.45528
C          2.38843       -0.92995        2.32444
H          1.87708       -0.07004        2.75586
C          3.16087       -2.11891        0.35814
C          3.35855       -2.23807       -1.12253
H          4.26697       -1.69865       -1.43185
H          2.51722       -1.79299       -1.67025
H          3.46666       -3.28800       -1.42918
C          2.88838       -1.93272        3.15103
H          2.77674       -1.85219        4.23498
C          3.65416       -3.11894        1.20236
H          4.15430       -3.98400        0.75741
C          3.52045       -3.03668        2.58609
H          3.90975       -3.83666        3.22068
C          3.12711        1.60363       -1.99586
H          2.15570        1.46261       -2.49955
C          4.21034        0.93023       -2.81531
H          3.97424       -0.12761       -2.99083
H          5.17637        0.98613       -2.28982
H          4.31690        1.42304       -3.79313
C          3.39216        3.08616       -1.81809
H          2.57414        3.57918       -1.27705
H          4.32820        3.24526       -1.26023
H          3.48768        3.57489       -2.79918
C          1.69835        2.60178        1.33324
H          2.68991        2.70565        0.86335
C          1.84740        2.75024        2.83519
H          2.58141        2.03503        3.23308
H          0.87950        2.57664        3.33030
H          2.18682        3.76589        3.08854
C          0.73689        3.61913        0.74797
H          0.61195        3.47372       -0.33404
H         -0.25478        3.51388        1.21147
H          1.10037        4.64393        0.92036
C         -2.77777        2.09795        0.16554
H         -2.96669        2.03190       -0.90777
C         -1.89166        1.09901        2.19791
C         -1.20729        0.01167        2.97179
H         -0.34399       -0.38394        2.42349
H         -1.88517       -0.83351        3.15584
H         -0.85445        0.39681        3.93899
C         -3.12426        3.25779        0.85145
H         -3.58538        4.09169        0.31769
C         -2.25519        2.27411        2.86866
H         -2.03877        2.35103        3.93792
C         -2.86923        3.34042        2.21730
H         -3.13367        4.24128        2.77640
C         -4.30105       -0.93157       -0.92075
H         -4.27677       -1.23926        0.13868
C         -4.63837       -2.12990       -1.78782
H         -3.88060       -2.91885       -1.67805
H         -4.66600       -1.83305       -2.84759
H         -5.61950       -2.54913       -1.51789
C         -5.29829        0.19749       -1.09455
H         -5.09125        1.02502       -0.40360
H         -5.26003        0.58276       -2.12529
H         -6.31901       -0.16487       -0.89890
C         -1.60430       -2.96766        0.51765
H         -1.46732       -3.09969       -0.57133
C         -2.74117       -3.85359        0.98780
H         -3.67687       -3.62031        0.46192
H         -2.90772       -3.71000        2.06631
H         -2.49998       -4.91275        0.81373
C         -0.30323       -3.28098        1.22737
H          0.50225       -2.61540        0.89291
H         -0.41905       -3.15612        2.31436
H          0.00456       -4.31856        1.02919
