90
Cat312.ts34.5.log	Energy: -2511195.4429622
C          0.21198       -2.57117       -3.05151
H         -0.13445       -2.39487       -4.07378
H          1.25613       -2.89823       -2.99789
C         -0.71201       -3.06982       -2.09262
H         -1.76695       -3.17462       -2.36780
H         -0.39410       -3.85623       -1.39770
H         -0.32910       -2.16232       -0.76765
Co        -0.31281       -1.09639       -1.79292
C          1.81628       -0.82179        0.84271
C          3.06001       -1.16732       -1.77472
C          1.87833        1.41529       -1.07264
C         -1.89078        1.46699       -0.12181
C         -3.58412       -0.42261       -1.37688
C         -2.18373       -1.11747        1.08297
P         -1.88937       -0.31971       -0.56987
P          1.55441       -0.43268       -0.92997
C         -0.55226       -0.06094       -3.15816
O         -0.67210        0.62843       -4.08099
C          1.23424       -0.01465        1.83251
H          0.70501        0.89777        1.55426
C          2.44936       -2.00211        1.25214
H          2.86402       -2.68912        0.51274
C          1.32081       -0.34477        3.18165
H          0.88314        0.29338        3.95132
C          2.54663       -2.34834        2.59851
H          3.04579       -3.26495        2.91821
C          1.98837       -1.50632        3.55156
F          2.08464       -1.82395        4.84106
H          2.80362       -1.06932       -2.84049
H          3.02727       -2.24675       -1.56217
C          4.41281       -0.58725       -1.50867
C          5.21843       -1.02407       -0.44722
H          4.87569       -1.83601        0.19493
C          4.90416        0.44478       -2.32193
H          4.31414        0.77672       -3.18095
C          6.44996       -0.42703       -0.18756
H          7.05558       -0.78330        0.64923
C          6.13175        1.04880       -2.06103
H          6.48512        1.85716       -2.70542
C          6.90796        0.62030       -0.98581
H          7.87018        1.09328       -0.77710
H          0.92514        1.83530       -1.41695
H          2.58270        1.50681       -1.91418
C          2.36819        2.20639        0.10470
C          3.62014        1.98844        0.69235
H          4.28554        1.22710        0.28625
C          1.53804        3.18853        0.65955
H          0.55825        3.36865        0.21342
C          4.02004        2.72261        1.80567
H          5.00044        2.53129        2.24882
C          1.93438        3.92252        1.77546
H          1.26334        4.67995        2.18866
C          3.17900        3.68901        2.35711
H          3.49443        4.25910        3.23430
C         -2.13558        1.94947        1.16937
H         -2.29856        1.26067        1.99878
C         -1.70871        2.40130       -1.15330
H         -1.51519        2.06058       -2.17272
C         -2.19777        3.31694        1.43031
H         -2.38735        3.69735        2.43550
C         -1.78781        3.76962       -0.91358
H         -1.65214        4.49875       -1.71429
C         -2.03169        4.21136        0.38236
F         -2.09653        5.51808        0.62377
H         -3.76150       -1.49601       -1.54436
H         -3.43638        0.02656       -2.37066
C         -4.70853        0.23720       -0.64231
C         -4.99205        1.59458       -0.85325
H         -4.41909        2.15087       -1.59818
C         -5.47729       -0.45225        0.30556
H         -5.30272       -1.51715        0.47499
C         -5.98665        2.24395       -0.12828
H         -6.18406        3.30289       -0.31157
C         -6.47536        0.19409        1.03315
H         -7.06109       -0.36845        1.76424
C         -6.72945        1.54787        0.82471
H         -7.51017        2.05640        1.39511
H         -3.17327       -0.80324        1.45093
H         -1.42272       -0.69411        1.75445
C         -2.04093       -2.61026        1.07343
C         -0.86892       -3.19421        1.56885
H         -0.08970       -2.55346        1.98296
C         -3.02998       -3.45441        0.55413
H         -3.95839       -3.03219        0.16541
C         -0.68236       -4.57369        1.53362
H          0.24353       -5.00116        1.92639
C         -2.84838       -4.83555        0.51863
H         -3.63411       -5.47351        0.10692
C         -1.67091       -5.40189        1.00408
H         -1.52761       -6.48451        0.97429
