68
Cat379.ts34.5.log	Energy: -1955093.0069907
C          1.85290       -3.06422       -0.06809
H          1.50764       -3.92381       -0.64994
H          2.90622       -2.82156       -0.23689
C          1.30371       -2.85530        1.22206
H          0.51867       -3.51826        1.59270
H          1.97838       -2.52853        2.02332
H          0.90689       -1.20717        1.24495
Co         0.53473       -1.53644       -0.14894
C          1.51495        1.62703        0.48346
C          3.66741       -0.17774       -0.41064
C          1.85325        0.91837       -2.28154
C         -2.36396        0.30905       -0.58840
C         -2.68109       -2.11786        0.91702
C         -1.32594        0.20217        2.09449
P         -1.40374       -0.80914        0.54463
P          1.84186        0.15506       -0.58487
C         -0.04579       -2.19973       -1.64280
O         -0.39408       -2.64788       -2.64926
C          0.64058        2.60612       -0.01598
H          0.27150        2.53342       -1.03939
C          1.92736        1.72282        1.83309
C          2.79800        0.69565        2.49810
H          3.85254        0.79213        2.19862
H          2.47488       -0.32345        2.24059
H          2.75307        0.80006        3.59080
C          0.19156        3.66449        0.76765
H         -0.49724        4.39802        0.34249
C          1.47510        2.80243        2.60222
H          1.79788        2.86952        3.64505
C          0.61772        3.77032        2.08783
H          0.27664        4.59356        2.71979
H          3.78909       -0.79085        0.49311
C          4.24981       -0.92228       -1.60617
H          4.37226       -0.27032       -2.48239
H          3.60744       -1.76312       -1.90825
H          4.20810        0.76558       -0.23183
H          5.24217       -1.33057       -1.36085
H          0.82068        1.20238       -2.52716
C          2.79312        2.08959       -2.52223
H          3.84542        1.81915       -2.35268
H          2.56298        2.93629       -1.85910
H          2.07784        0.07607       -2.95588
H          2.71098        2.44664       -3.56108
C         -1.69781        0.64065       -1.77277
H         -0.72091        0.18563       -1.93305
C         -3.65707        0.84451       -0.36961
C         -4.55766        0.48484        0.78045
H         -4.03276        0.38655        1.73746
H         -5.06113       -0.47671        0.59185
H         -5.34237        1.24394        0.90440
C         -2.23695        1.50466       -2.72033
H         -1.68242        1.73216       -3.63417
C         -4.17702        1.72901       -1.32503
H         -5.16860        2.15648       -1.15122
C         -3.48584        2.06759       -2.48453
H         -3.93195        2.75876       -3.20382
H         -3.27743       -2.20586       -0.00606
C         -2.12603       -3.47922        1.29501
H         -1.57696       -3.44877        2.24776
H         -1.43515       -3.84604        0.52228
H         -3.36110       -1.74763        1.69916
H         -2.94178       -4.21076        1.40529
H         -2.29533        0.68713        2.27460
C         -0.88167       -0.56566        3.32755
H          0.08871       -1.05824        3.16761
H         -1.60760       -1.34273        3.61431
H         -0.61476        1.00949        1.86676
H         -0.77103        0.11575        4.18510
