94
Cat308.ts34.5.log	Energy: -2699936.9004112
C          0.81354       -2.77048       -2.64758
H          0.62752       -2.59485       -3.71043
H          1.85452       -3.01740       -2.41193
C         -0.21719       -3.34219       -1.85491
H         -1.20874       -3.50757       -2.28820
H          0.05439       -4.09958       -1.11021
H         -0.16076       -2.40238       -0.49099
Co        -0.02818       -1.33777       -1.50879
C          2.84824       -1.85435        0.16226
O          2.55017        0.48922       -1.20866
O          1.20945        0.12619        0.99589
C         -1.89886        1.18735       -0.35078
O         -3.16784       -1.10487       -1.11851
O         -1.78222       -1.13061        1.07050
P         -1.70134       -0.61409       -0.50884
P          1.61776       -0.64663       -0.43634
C         -0.16610       -0.28138       -2.89111
O         -0.20149        0.43518       -3.79039
C          2.63417       -2.48218        1.39571
H          1.80079       -2.15840        2.02399
C          3.88554       -2.31144       -0.66204
H          4.06194       -1.84823       -1.63532
C          3.45994       -3.51795        1.82183
H          3.31071       -4.01365        2.78277
C          4.71827       -3.34625       -0.24730
H          5.53888       -3.70476       -0.87101
C          4.49698       -3.93189        0.99361
F          5.29264       -4.91992        1.39570
C          3.89231        0.75709       -1.22969
C          4.70918        0.75668       -0.10009
H          4.29932        0.52101        0.88123
C          4.43743        1.06350       -2.47829
H          3.77791        1.05739       -3.34845
C          6.06262        1.05892       -0.23431
H          6.69196        1.05083        0.65990
C          5.78926        1.36748       -2.59217
H          6.20083        1.60499       -3.57730
C          6.63133        1.37098       -1.47263
C          8.08483        1.72545       -1.59861
H          8.66429        1.36088       -0.73837
H          8.22528        2.81824       -1.65079
H          8.52666        1.29901       -2.51176
C          1.94546        1.08125        1.63901
C          2.03347        2.37028        1.10712
H          1.52821        2.59116        0.16629
C          2.57600        0.78278        2.84538
H          2.49138       -0.22192        3.26108
C          2.77848        3.33791        1.76959
H          2.85199        4.33941        1.33661
C          3.31514        1.76762        3.49976
H          3.81005        1.52283        4.44361
C          3.44076        3.05639        2.97246
C          4.26727        4.10605        3.65695
H          3.71341        5.05214        3.75804
H          5.18118        4.32698        3.08145
H          4.57614        3.78500        4.66166
C         -1.44002        1.84733        0.79377
H         -1.02582        1.26578        1.61786
C         -2.35908        1.94248       -1.43847
H         -2.69828        1.44875       -2.35161
C         -1.46873        3.23663        0.87222
H         -1.10541        3.76623        1.75455
C         -2.39625        3.33026       -1.37027
H         -2.76026        3.93373       -2.20328
C         -1.95440        3.95855       -0.21079
F         -1.98717        5.28725       -0.14248
C         -4.35757       -0.44368       -1.27818
C         -4.96660        0.30524       -0.27233
H         -4.49672        0.40433        0.70569
C         -4.97364       -0.55986       -2.52523
H         -4.47712       -1.14718       -3.30014
C         -6.18341        0.93290       -0.52819
H         -6.64702        1.52173        0.26807
C         -6.19116        0.06933       -2.76105
H         -6.66040       -0.02902       -3.74407
C         -6.82146        0.82985       -1.76815
C         -8.14816        1.48588       -2.02018
H         -8.31664        2.32979       -1.33587
H         -8.97819        0.77412       -1.87447
H         -8.22244        1.86325       -3.05097
C         -2.92493       -1.26628        1.81221
C         -3.81366       -2.30926        1.54181
H         -3.59325       -2.99493        0.72292
C         -3.18659       -0.38719        2.86087
H         -2.48059        0.41357        3.08159
C         -4.97249       -2.44009        2.29657
H         -5.66794       -3.25175        2.06556
C         -4.35086       -0.53711        3.61350
H         -4.54811        0.16054        4.43201
C         -5.27043       -1.55382        3.34070
C         -6.54061       -1.69495        4.12808
H         -7.42092       -1.47280        3.50311
H         -6.56043       -1.01034        4.98758
H         -6.66566       -2.72050        4.50887
