94
Cat346.ts34.5.log	Energy: -3152109.2759726
C         -0.13826        3.53359       -0.20450
H         -1.12068        3.89377        0.11426
H          0.72806        4.00389        0.26938
C          0.01113        2.94588       -1.46130
H         -0.84502        2.91536       -2.13997
H          0.98695        2.96954       -1.95567
H         -0.27020        1.14820       -1.40122
Co         0.00250        1.47269        0.01223
C          1.86715       -0.86534       -1.69328
O          3.12209        1.22901       -0.83264
O          2.29299       -0.46544        0.94523
C         -1.89899       -0.79134        1.66993
O         -3.21132        1.20025        0.65915
O         -2.23884       -0.52274       -0.99563
P         -1.76376        0.41878        0.31940
P          1.73409        0.39199       -0.38995
C          0.32623        1.83845        1.68067
O          0.51799        2.08061        2.78801
C          0.70587       -1.54918       -2.06689
H         -0.26155       -1.25177       -1.65484
C          3.09435       -1.23150       -2.26196
H          4.00171       -0.69385       -1.98379
C          0.76487       -2.60148       -2.97680
H         -0.13991       -3.13621       -3.27048
C          3.16324       -2.27892       -3.17263
H          4.11592       -2.57490       -3.61429
C          1.99696       -2.96325       -3.51827
Cl         2.08298       -4.27577       -4.64317
C          3.41182        2.44185       -0.27082
C          3.38014        2.63074        1.10997
H          3.13295        1.78975        1.76053
C          3.73897        3.49712       -1.12413
H          3.76205        3.32034       -2.20100
C          3.63974        3.89116        1.66286
C          3.56606        4.07855        3.14981
H          2.60492        3.71121        3.54115
H          4.36071        3.51057        3.65989
H          3.67446        5.13546        3.42974
C          4.01605        4.74542       -0.57752
H          4.26937        5.57878       -1.23726
C          3.95720        4.94630        0.80247
H          4.16135        5.93640        1.21755
C          3.30506       -1.39011        0.88299
C          4.63366       -0.97587        0.94265
H          4.85365        0.09022        1.02855
C          2.98132       -2.74185        0.76912
H          1.93265       -3.03888        0.70994
C          5.67091       -1.91316        0.87882
C          7.10119       -1.46596        0.96917
H          7.25856       -0.51175        0.44514
H          7.39809       -1.31222        2.02000
H          7.78477       -2.21205        0.53986
C          4.00956       -3.67662        0.70493
H          3.76921       -4.73771        0.60529
C          5.34141       -3.26763        0.75428
H          6.14011       -4.01154        0.69531
C         -0.72419       -1.41259        2.10646
H          0.24251       -1.10316        1.70103
C         -3.12667       -1.17451        2.22533
H         -4.04468       -0.68473        1.89765
C         -0.76965       -2.42028        3.06599
H          0.14533       -2.90546        3.40966
C         -3.18248       -2.17788        3.18525
H         -4.13528       -2.48701        3.61759
C         -2.00206       -2.80025        3.59404
Cl        -2.07101       -4.05794        4.78137
C         -3.53712        2.37167        0.04045
C         -3.41591        2.52537       -1.34201
H         -3.05586        1.68593       -1.94141
C         -4.01320        3.41798        0.83108
H         -4.09846        3.26895        1.90864
C         -3.74336        3.74121       -1.95299
C         -3.55322        3.91825       -3.43146
H         -3.72846        2.97939       -3.97657
H         -4.22873        4.68469       -3.83713
H         -2.52182        4.23910       -3.65655
C         -4.35653        4.62142        0.22325
H         -4.73123        5.44604        0.83446
C         -4.21785        4.78716       -1.15450
H         -4.48439        5.74053       -1.61757
C         -3.23665       -1.46225       -0.92773
C         -4.56734       -1.07978       -1.08164
H         -4.80120       -0.02521       -1.24113
C         -2.89750       -2.79909       -0.71776
H         -1.84953       -3.07283       -0.58289
C         -5.59056       -2.03240       -1.01853
C         -7.02122       -1.61879       -1.20854
H         -7.22462       -0.64594       -0.73720
H         -7.26127       -1.51704       -2.28002
H         -7.71455       -2.35889       -0.78461
C         -3.91163       -3.74927       -0.65495
H         -3.65888       -4.79776       -0.48062
C         -5.24558       -3.37078       -0.79901
H         -6.03359       -4.12596       -0.73951
