100
Cat375.ts34.5.log	Energy: -2624768.9221677
C         -0.14465        3.36213       -0.20169
H         -1.10675        3.72696        0.16951
H          0.74771        3.83266        0.22097
C         -0.06661        2.76886       -1.46287
H         -0.95904        2.73761       -2.09301
H          0.87977        2.79067       -2.01173
H         -0.33680        0.97187       -1.38356
Co         0.00356        1.30310        0.01338
C          1.78286       -1.04187       -1.77272
O          3.07405        1.06762       -0.99688
O          2.35512       -0.61328        0.83812
C         -1.81031       -0.97769        1.74759
O         -3.16909        1.03716        0.84248
O         -2.30724       -0.66381       -0.89331
P         -1.74700        0.24872        0.41074
P          1.71501        0.22309       -0.47594
C          0.41040        1.66752        1.66297
O          0.65943        1.91109        2.75898
C          0.60651       -1.72908       -2.08262
H         -0.33832       -1.43002       -1.62307
C          2.97805       -1.41474       -2.40391
H          3.89939       -0.87681       -2.17653
C          0.62910       -2.78649       -2.99002
H         -0.30149       -3.31311       -3.21959
C          2.98842       -2.46812       -3.30837
H          3.92943       -2.75312       -3.78742
C          1.81752       -3.17757       -3.61348
C          1.84720       -4.31022       -4.59660
H          2.06288       -3.94421       -5.61364
H          2.63422       -5.03723       -4.34280
H          0.88662       -4.84279       -4.62892
C          3.38826        2.28218       -0.45626
C          3.42442        2.47969        0.92355
H          3.21079        1.64218        1.59018
C          3.67158        3.33411       -1.32978
H          3.64140        3.15113       -2.40545
C          3.70804        3.74374        1.45570
C          3.70570        3.93924        2.94355
H          2.76659        3.56903        3.38275
H          4.52715        3.37812        3.41763
H          3.82195        4.99832        3.21218
C          3.97275        4.58595       -0.80466
H          4.19139        5.41602       -1.48084
C          3.98103        4.79486        0.57542
H          4.20270        5.78777        0.97460
C          3.36141       -1.53761        0.73172
C          4.69132       -1.12370        0.72154
H          4.91425       -0.05656        0.78510
C          3.03338       -2.89095        0.64651
H          1.98283       -3.18693        0.64010
C          5.72471       -2.06168        0.61605
C          7.15693       -1.61115        0.62674
H          7.29694       -0.70344        0.02095
H          7.48571       -1.37027        1.65128
H          7.82783       -2.39055        0.23878
C          4.05745       -3.82607        0.54190
H          3.81296       -4.88821        0.46481
C          5.39048       -3.41711        0.52242
H          6.18601       -4.16146        0.43282
C         -0.61551       -1.60353        2.11377
H          0.32745       -1.28853        1.66052
C         -3.00472       -1.37255        2.36565
H         -3.94079       -0.88284        2.09335
C         -0.61856       -2.62201        3.06433
H          0.32609       -3.10031        3.33795
C         -2.99587       -2.38702        3.31394
H         -3.93646       -2.69050        3.78237
C         -1.80567       -3.03367        3.67737
C         -1.81155       -4.11688        4.71515
H         -1.96789       -3.69515        5.72176
H         -2.62472       -4.83711        4.53749
H         -0.86081       -4.66783        4.72980
C         -3.52397        2.21449        0.25542
C         -3.48074        2.38370       -1.13015
H         -3.15801        1.54967       -1.75757
C         -3.95095        3.25471        1.08210
H         -3.97542        3.09406        2.16110
C         -3.83663        3.60745       -1.70841
C         -3.72775        3.79976       -3.19324
H         -3.95047        2.87076       -3.73807
H         -4.41135        4.58276       -3.55103
H         -2.70499        4.10490       -3.47290
C         -4.32300        4.46589        0.50777
H         -4.65900        5.28516        1.14808
C         -4.26124        4.64654       -0.87381
H         -4.54882        5.60603       -1.31100
C         -3.29945       -1.60288       -0.78431
C         -4.63629       -1.21823       -0.85910
H         -4.87675       -0.16081       -0.98731
C         -2.95161       -2.94371       -0.61474
H         -1.89803       -3.21862       -0.53991
C         -5.65595       -2.17135       -0.75638
C         -7.09405       -1.75162       -0.85714
H         -7.27987       -0.81968       -0.30263
H         -7.37730       -1.56584       -1.90647
H         -7.76849       -2.52567       -0.46462
C         -3.96192       -3.89414       -0.51365
H         -3.70143       -4.94561       -0.37078
C         -5.30169       -3.51326       -0.57938
H         -6.08660       -4.26891       -0.49077
