96
Cat399.ts34.5.log	Energy: -2436005.7998601
C         -0.72107        2.67431       -2.11287
H         -0.80119        2.59037       -3.20087
H         -1.62491        3.08460       -1.64711
C          0.54710        2.99104       -1.54623
H          1.42692        3.02606       -2.19615
H          0.60839        3.74302       -0.75003
H          0.55126        2.01154       -0.24419
Co         0.05238        1.04075       -1.24748
C         -0.91297        0.35170        1.88553
C         -3.06474        1.51648        0.26769
C         -2.27524       -1.20636       -0.16015
C          1.58868       -1.82971       -0.08285
C          3.09399       -0.29413       -1.91347
C          2.75659        0.75626        0.80235
P          1.80225       -0.04502       -0.57460
P         -1.52013        0.46534        0.14297
C         -0.20411        0.17683       -2.72708
O         -0.42709       -0.38148       -3.71663
C         -0.47644       -0.89153        2.37053
H         -0.60967       -1.79080        1.76928
C         -0.70743        1.49747        2.68939
C         -1.07750        2.88199        2.24055
H         -2.15989        3.06276        2.31443
H         -0.78049        3.04936        1.19413
H         -0.57602        3.63851        2.85932
C          0.13585       -1.02285        3.61360
H          0.46354       -2.00909        3.95047
C         -0.10517        1.34155        3.94440
H          0.04394        2.23017        4.56476
C          0.31905        0.10125        4.41313
H          0.79179        0.01731        5.39436
H         -2.74182        2.56051        0.14003
H         -3.48267        1.42219        1.27998
C         -4.12824        1.18993       -0.74419
C         -5.45845        1.05149       -0.33206
H         -5.70279        1.15480        0.72840
C         -3.83068        1.02160       -2.10278
H         -2.79770        1.12281       -2.44108
C         -6.46425        0.74901       -1.24548
H         -7.49378        0.63545       -0.89760
C         -4.83451        0.70906       -3.01714
H         -4.57818        0.57264       -4.07070
C         -6.15552        0.57142       -2.59310
H         -6.94175        0.32533       -3.31096
H         -1.49278       -1.94271        0.07463
H         -2.38435       -1.25491       -1.25338
C         -3.58172       -1.57911        0.48234
C         -3.84769       -1.38324        1.84388
H         -3.08521       -0.94200        2.48807
C         -4.58577       -2.14879       -0.31093
H         -4.40470       -2.28445       -1.38053
C         -5.08228       -1.73496        2.38712
H         -5.26922       -1.56789        3.45099
C         -5.81695       -2.50633        0.22986
H         -6.58639       -2.93730       -0.41526
C         -6.07326       -2.29671        1.58381
H         -7.04134       -2.56885        2.01127
C          0.68927       -2.48979       -0.93522
H          0.20223       -1.92180       -1.72819
C          2.22875       -2.58447        0.92994
C          3.28169       -2.06738        1.86766
H          2.90182       -1.27842        2.53079
H          4.14699       -1.67047        1.31740
H          3.64746       -2.88467        2.50328
C          0.39057       -3.84258       -0.81039
H         -0.31350       -4.31105       -1.50159
C          1.88467       -3.93847        1.06117
H          2.36729       -4.51661        1.85365
C          0.98140       -4.57200        0.21504
H          0.75095       -5.63100        0.35284
H          3.35956        0.70996       -2.27512
H          2.53921       -0.78184       -2.72924
C          4.28962       -1.09771       -1.51107
C          4.26407       -2.49726       -1.59994
H          3.38310       -2.99045       -2.01736
C          5.43731       -0.49191       -0.97946
H          5.49579        0.59733       -0.91626
C          5.33597       -3.26375       -1.15116
H          5.28850       -4.35274       -1.22617
C          6.51255       -1.25688       -0.53060
H          7.39555       -0.76061       -0.12074
C          6.46264       -2.64774       -0.60714
H          7.30314       -3.24925       -0.25318
H          3.74184        0.27768        0.87702
H          2.19351        0.51569        1.71564
C          2.91246        2.24630        0.70135
C          2.30267        3.07184        1.65249
H          1.72248        2.60838        2.45226
C          3.67569        2.85648       -0.30245
H          4.17326        2.24534       -1.05666
C          2.42558        4.45835        1.59124
H          1.93462        5.07924        2.34494
C          3.80373        4.24169       -0.36746
H          4.39945        4.69202       -1.16509
C          3.17350        5.05139        0.57616
H          3.27016        6.13819        0.52302
