88
Cat396.ts34.5.log	Energy: -2775131.2667395
C         -1.21665        0.87906        3.01456
H         -1.13915        1.87953        3.44761
H         -2.23697        0.50892        2.88592
C         -0.17156       -0.04226        3.22537
H          0.73004        0.26443        3.76061
H         -0.41420       -1.10138        3.36443
H          0.19614       -0.66456        1.67104
Co        -0.09922        0.73873        1.31671
C         -1.40530       -1.26119       -1.26567
O         -2.91361       -0.62461        0.88148
O         -2.38360        1.13028       -0.95134
C          2.58194        1.85116       -0.49085
O          3.06523        0.12989        1.39664
O          1.78765       -0.77403       -0.64586
P          1.75414        0.50320        0.41668
P         -1.60949        0.01094        0.03649
C         -0.03615        2.48833        1.27946
O          0.02779        3.63483        1.29237
C         -1.56939       -0.92304       -2.61427
H         -1.83657        0.10136       -2.87379
C         -1.06252       -2.58475       -0.91221
C         -0.80789       -3.01114        0.50336
H         -1.54801       -2.60475        1.20435
H          0.17775       -2.64959        0.83364
H         -0.81647       -4.10617        0.58792
C         -1.42083       -1.87623       -3.61791
H         -1.56053       -1.59281       -4.66350
C         -0.93310       -3.52860       -1.93677
H         -0.68372       -4.55903       -1.67034
C         -1.11037       -3.18920       -3.27543
H         -1.00310       -3.95268       -4.04963
C         -3.95306       -1.36234        0.38358
C         -4.59290       -1.05595       -0.82014
H         -4.25966       -0.20092       -1.40731
C         -4.38885       -2.44410        1.15135
H         -3.88631       -2.65719        2.09670
C         -5.65376       -1.84397       -1.25837
H         -6.16674       -1.62688       -2.19692
C         -5.45350       -3.22851        0.71831
H         -5.81070       -4.07731        1.30404
C         -6.07061       -2.92201       -0.48826
F         -7.08710       -3.67440       -0.91146
C         -2.61207        2.41031       -0.52583
C         -3.30034        2.66710        0.66158
H         -3.66592        1.83349        1.26263
C         -2.15137        3.46382       -1.31425
H         -1.61425        3.24137       -2.23684
C         -3.50682        3.98110        1.07048
H         -4.03261        4.21044        1.99885
C         -2.36522        4.77857       -0.91362
H         -2.00618        5.62069       -1.50736
C         -3.03279        5.02108        0.28059
F         -3.22752        6.27900        0.67397
C          3.65381        2.52483        0.10866
H          4.02915        2.17581        1.07102
C          2.07433        2.29495       -1.73067
C          0.92492        1.61926       -2.41422
H          0.10628        1.41931       -1.70975
H          1.22388        0.65175       -2.84559
H          0.53503        2.24286       -3.23038
C          4.24424        3.62056       -0.51194
H          5.08076        4.13326       -0.03204
C          2.68754        3.39684       -2.33591
H          2.30543        3.74465       -3.29932
C          3.75952        4.05593       -1.74208
H          4.21294        4.91599       -2.24054
C          3.00956       -0.79219        2.40003
C          3.36271       -0.39214        3.68956
H          3.64768        0.64755        3.86028
C          2.64551       -2.11713        2.15137
H          2.40383       -2.42514        1.13341
C          3.33689       -1.30846        4.73626
H          3.60581       -1.01908        5.75366
C          2.60776       -3.03468        3.19863
H          2.32308       -4.07489        3.03064
C          2.94979       -2.61920        4.47937
F          2.91417       -3.49639        5.48154
C          2.75895       -1.11296       -1.54837
C          2.32438       -1.78617       -2.69273
H          1.25930       -1.99325       -2.80719
C          4.11632       -0.84371       -1.36091
H          4.45445       -0.33395       -0.45965
C          3.24273       -2.18520       -3.65762
H          2.92521       -2.71274       -4.55876
C          5.03484       -1.23822       -2.33203
H          6.10080       -1.03723       -2.21203
C          4.59042       -1.90099       -3.46800
F          5.47360       -2.27733       -4.39378
