100
Cat395.ts34.5.log	Energy: -2624763.9762824
C         -1.37272        0.79790        2.95601
H         -1.35824        1.79548        3.40232
H         -2.37011        0.39056        2.77180
C         -0.30737       -0.09001        3.21988
H          0.55509        0.24608        3.80114
H         -0.52009       -1.15643        3.35401
H          0.12551       -0.69179        1.69889
Co        -0.15659        0.71237        1.33072
C         -1.30525       -1.12487       -1.44903
O         -2.90055       -0.68908        0.69484
O         -2.35918        1.20386       -1.00022
C          2.70249        1.87236       -0.13228
O          2.93795       -0.07891        1.58282
O          1.82376       -0.66177       -0.66828
P          1.74802        0.47284        0.54018
P         -1.59843        0.03730       -0.06148
C         -0.07111        2.46148        1.36213
O          0.00545        3.60564        1.42987
C         -1.32656       -0.65418       -2.76787
H         -1.55970        0.39484       -2.95084
C         -1.00466       -2.48020       -1.19535
C         -0.98342       -3.06122        0.18707
H         -2.00590       -3.28361        0.53094
H         -0.53675       -2.36927        0.91402
H         -0.41141       -3.99929        0.20551
C         -1.08105       -1.50718       -3.83974
H         -1.11186       -1.12127       -4.86124
C         -0.75722       -3.31850       -2.28831
H         -0.52576       -4.37008       -2.09896
C         -0.80030       -2.84947       -3.59781
H         -0.60515       -3.53255       -4.42802
C         -3.95302       -1.36293        0.14201
C         -4.49065       -1.06439       -1.11079
H         -4.07111       -0.25216       -1.70292
C         -4.51932       -2.37914        0.91454
H         -4.09870       -2.58186        1.90180
C         -5.57308       -1.80334       -1.58262
H         -5.98564       -1.56054       -2.56594
C         -5.60377       -3.10133        0.42831
H         -6.03850       -3.89162        1.04692
C         -6.14762       -2.83561       -0.83421
C         -7.29183       -3.64477       -1.37307
H         -7.95501       -3.99304       -0.56756
H         -6.92970       -4.53955       -1.90719
H         -7.89668       -3.06368       -2.08436
C         -2.60842        2.45811       -0.51364
C         -3.33260        2.65114        0.66219
H         -3.71929        1.78674        1.20379
C         -2.13383        3.55525       -1.22872
H         -1.57513        3.38654       -2.15050
C         -3.54550        3.94419        1.13055
H         -4.10464        4.08695        2.05939
C         -2.36397        4.84114       -0.75189
H         -1.97880        5.69571       -1.31485
C         -3.05872        5.06124        0.44302
C         -3.24188        6.44784        0.98697
H         -2.37770        6.74018        1.60690
H         -4.13862        6.51937        1.61943
H         -3.33162        7.19073        0.18084
C          3.76359        2.40826        0.60726
H          4.05759        1.92469        1.53948
C          2.29624        2.48701       -1.33575
C          1.16487        1.95624       -2.16399
H          0.30002        1.69574       -1.53770
H          1.45925        1.04304       -2.70410
H          0.84387        2.69972       -2.90634
C          4.44361        3.53667        0.16114
H          5.27168        3.94158        0.74724
C          2.99693        3.61945       -1.76347
H          2.69309        4.10169       -2.69643
C          4.05860        4.14278       -1.03162
H          4.58248        5.03106       -1.39286
C          2.75956       -1.13565        2.42839
C          3.12918       -0.97874        3.76463
H          3.52816       -0.01640        4.09136
C          2.24425       -2.35474        1.98825
H          1.97354       -2.48025        0.93934
C          2.96985       -2.03435        4.65485
H          3.25778       -1.89721        5.70102
C          2.08069       -3.39831        2.89747
H          1.66613       -4.34663        2.54399
C          2.43590       -3.26316        4.24282
C          2.27981       -4.39939        5.21160
H          1.86805       -4.05574        6.17267
H          3.25084       -4.87566        5.42687
H          1.61213       -5.17732        4.81502
C          2.87021       -0.95093       -1.50340
C          2.53198       -1.46327       -2.75735
H          1.47704       -1.59832       -2.99954
C          4.21028       -0.78942       -1.15381
H          4.47905       -0.41254       -0.16795
C          3.53383       -1.79916       -3.65956
H          3.25407       -2.20239       -4.63714
C          5.19937       -1.12739       -2.07670
H          6.24766       -0.99630       -1.79439
C          4.88842       -1.63149       -3.34234
C          5.96196       -1.96665       -4.33707
H          6.04166       -1.18860       -5.11471
H          5.75330       -2.91720       -4.85129
H          6.94601       -2.05097       -3.85437
