96
Cat391.ts34.5.log	Energy: -2435991.0719116
C         -0.85489        1.11056       -2.96849
H         -0.58710        0.63359       -3.91600
H         -1.92212        1.33374       -2.87225
C          0.07852        1.97247       -2.34502
H          1.07061        2.10462       -2.78909
H         -0.29144        2.87645       -1.84808
H         -0.02571        1.44654       -0.68102
Co        -0.01085        0.16440       -1.38739
C         -2.65335        1.68086       -0.18160
C         -3.18994       -1.18901       -0.76482
C         -1.73818       -0.48826        1.56069
C          2.24383       -1.57001        0.65336
C          3.39086        0.16583       -1.21884
C          1.85767        1.45099        0.98925
P          1.83853        0.04716       -0.20927
P         -1.87334       -0.00261       -0.22273
C          0.22994       -1.22275       -2.40001
O          0.37520       -2.11444       -3.12355
C         -1.89766        2.63103        0.53097
H         -0.98349        2.31494        1.03881
C         -3.77916        2.12628       -0.91155
C         -4.63189        1.26656       -1.80355
H         -5.29646        0.60228       -1.23245
H         -4.03673        0.61719       -2.45803
H         -5.26324        1.90344       -2.43824
C         -2.25980        3.96903        0.60193
H         -1.64306        4.66579        1.17421
C         -4.12238        3.48698       -0.82880
H         -4.99250        3.83173       -1.39407
C         -3.39512        4.40165       -0.07913
H         -3.70009        5.45035       -0.04800
C         -2.94476       -1.87892       -1.95667
H         -2.03361       -1.65836       -2.51035
C         -4.37675       -1.46037       -0.04479
C         -4.77654       -0.74575        1.21301
H         -4.51954        0.32196        1.18073
H         -4.27138       -1.16791        2.09490
H         -5.86063       -0.83451        1.37195
C         -3.82726       -2.83592       -2.44766
H         -3.60278       -3.35586       -3.38161
C         -5.24845       -2.43283       -0.55180
H         -6.16916       -2.64425       -0.00071
C         -4.98621       -3.12056       -1.73318
H         -5.69247       -3.87168       -2.09543
C         -2.08846        0.36219        2.61813
H         -2.54567        1.32892        2.40563
C         -1.20070       -1.76329        1.85958
C         -0.90129       -2.77672        0.80093
H         -0.45365       -2.29736       -0.08079
H         -1.82515       -3.27371        0.46383
H         -0.20670       -3.54182        1.17199
C         -1.87203        0.00353        3.94453
H         -2.15861        0.68982        4.74524
C         -0.97103       -2.09592        3.20125
H         -0.52816       -3.07057        3.42333
C         -1.29029       -1.22744        4.24035
H         -1.09878       -1.51720        5.27640
C          2.27596       -2.59240       -0.31513
H          2.12147       -2.33542       -1.36356
C          2.50921       -1.92176        1.99722
C          2.66179       -0.98706        3.16556
H          1.70743       -0.84794        3.69674
H          3.02680        0.00400        2.88339
H          3.37217       -1.41891        3.88510
C          2.49960       -3.92352       -0.00124
H          2.51380       -4.67328       -0.79505
C          2.70167       -3.28419        2.29541
H          2.89488       -3.55366        3.33768
C          2.68994       -4.28084        1.33128
H          2.85189       -5.32330        1.61540
C          3.22045        0.21071       -2.60606
H          2.20023        0.20789       -2.99492
C          4.69880        0.16928       -0.68292
C          4.98094        0.12237        0.78756
H          4.77085       -0.87839        1.19489
H          4.35811        0.83617        1.34642
H          6.03510        0.35654        0.98953
C          4.30633        0.26082       -3.47580
H          4.14079        0.29386       -4.55501
C          5.77732        0.22559       -1.57313
H          6.79148        0.23555       -1.16408
C          5.59493        0.26997       -2.95334
H          6.46251        0.31174       -3.61644
C          1.05599        1.26977        2.12425
H          0.56936        0.30800        2.28043
C          2.39534        2.73400        0.73247
C          3.17156        3.10435       -0.49894
H          2.69220        2.73165       -1.41244
H          4.19103        2.69170       -0.49155
H          3.25155        4.19731       -0.57601
C          0.83859        2.28606        3.04644
H          0.21049        2.09539        3.91872
C          2.16088        3.74555        1.67628
H          2.58031        4.73661        1.48303
C          1.40877        3.53633        2.82689
H          1.25237        4.35327        3.53537
