104
Cat431.ts34.5.log	Energy: -2250905.0626665
C         -0.64488        3.45271        0.96689
H         -0.70657        4.30070        0.27838
H         -1.52544        3.35501        1.61225
C          0.63039        3.10212        1.50052
H          1.52459        3.62916        1.15146
H          0.70037        2.85740        2.56795
H          0.56011        1.44894        1.40661
Co         0.00808        1.78334        0.07742
C         -1.10008       -1.00325        1.61373
C         -3.09894        1.02451        1.35394
C         -2.31321       -0.49269       -0.95466
C          1.09077       -0.82617       -1.75313
C          3.03679        1.22259       -1.44830
C          2.39064       -0.46794        0.80473
P          1.59791        0.47694       -0.56034
P         -1.58874        0.37874        0.49986
C         -0.29984        2.44955       -1.49346
O         -0.54730        2.86899       -2.54374
C         -1.01186       -2.33780        1.20619
H         -1.34490       -2.63630        0.21212
C         -0.64648       -0.67050        2.90009
H         -0.68136        0.37502        3.22314
C         -0.46072       -3.29904        2.05625
H         -0.38268       -4.33594        1.71857
C         -0.10492       -1.61919        3.76757
C          0.37432       -1.23609        5.13771
H          0.37371       -0.14561        5.27421
H         -0.26876       -1.67182        5.91958
H          1.39692       -1.60168        5.31996
C         -0.00655       -2.94628        3.32165
H          0.43219       -3.70483        3.97589
H         -2.75280        1.50245        2.28628
H         -3.74216        0.18055        1.64804
C         -3.84109        2.03710        0.49101
H         -3.10445        2.71444        0.02751
H         -4.33956        1.51663       -0.34649
C         -4.88330        2.87215        1.23740
H         -4.35750        3.39097        2.06184
C         -5.46761        3.93544        0.31514
H         -4.67915        4.57934       -0.10434
H         -6.18527        4.58006        0.84615
H         -6.00116        3.46965       -0.53042
C         -5.98364        2.01271        1.84955
H         -6.72761        2.63202        2.37449
H         -5.58635        1.28683        2.57489
H         -6.51589        1.44592        1.06656
H         -1.48660       -1.08307       -1.38089
H         -2.49742        0.30118       -1.69546
C         -3.54913       -1.36008       -0.74560
H         -3.49170       -1.88126        0.22465
H         -4.44939       -0.72304       -0.68545
C         -3.75528       -2.40734       -1.84379
H         -2.85317       -3.05044       -1.85177
C         -4.95772       -3.28774       -1.52716
H         -4.85622       -3.76949       -0.54186
H         -5.08659       -4.08122       -2.27985
H         -5.88569       -2.69192       -1.51125
C         -3.87845       -1.77754       -3.22629
H         -4.03599       -2.54610       -3.99917
H         -2.97474       -1.21333       -3.49995
H         -4.73625       -1.08480       -3.26582
C          0.66355       -0.44137       -3.03200
H          0.71226        0.60559       -3.33953
C          0.97647       -2.17204       -1.38763
H          1.29466       -2.49654       -0.39601
C          0.13259       -1.38440       -3.90684
H         -0.19977       -1.07351       -4.90029
C          0.42496       -3.12800       -2.24857
C          0.25202       -4.54967       -1.79760
H          0.91576       -4.78784       -0.95420
H         -0.78409       -4.73232       -1.46407
H          0.45882       -5.26176       -2.61010
C          0.00386       -2.71662       -3.51709
H         -0.43024       -3.44624       -4.20628
H          2.64581        1.61007       -2.40361
H          3.75412        0.42352       -1.69365
C          3.67428        2.35299       -0.65724
H          2.88177        3.07954       -0.41580
H          4.04344        1.97466        0.31461
C          4.82208        3.07191       -1.36851
H          4.43705        3.42076       -2.34537
C          5.25075        4.29716       -0.56939
H          4.40659        4.98491       -0.40574
H          6.04797        4.85608       -1.08360
H          5.63694        4.00265        0.42102
C          6.00842        2.15089       -1.63173
H          6.82641        2.68939       -2.13497
H          5.73699        1.29527       -2.26810
H          6.40791        1.75012       -0.68434
H          1.58220       -1.08242        1.23507
H          2.60642        0.28596        1.57752
C          3.62035       -1.30860        0.48761
H          3.52487       -1.76472       -0.51215
H          4.51293       -0.65942        0.43549
C          3.87121       -2.42582        1.50473
H          2.97938       -3.08228        1.48959
C          5.07823       -3.26135        1.09747
H          4.95875       -3.67280        0.08287
H          5.23625       -4.10485        1.78745
H          5.99715       -2.65150        1.10253
C          4.02015       -1.89241        2.92509
H          4.20954       -2.71075        3.63723
H          3.11441       -1.36508        3.25995
H          4.86717       -1.18870        2.99386
