84
Cat483.ts34.5.log	Energy: -2820199.3761827
C         -0.73734       -4.19330        0.30804
H         -0.54873       -4.74637        1.23143
H         -1.77637       -4.23596       -0.03317
C          0.30727       -4.05152       -0.63187
H          1.31068       -4.41800       -0.39508
H          0.06718       -4.09918       -1.69966
H          0.31717       -2.40847       -1.01500
Co         0.01811       -2.31873        0.43255
O         -2.06569       -0.83046       -1.54954
O         -3.09221       -1.56823        0.65791
O         -1.48624        0.43409        0.59399
O          2.09916       -0.25989        1.64091
O          3.08746       -1.86872       -0.10876
O          1.63250        0.08470       -0.83935
P          1.67654       -1.11724        0.30104
P         -1.62970       -1.11878        0.02026
C          0.02715       -2.43549        2.17512
O          0.00646       -2.47459        3.32253
C         -2.29608        0.39057       -2.13467
C         -3.59466        0.75836       -2.48274
H         -4.42107        0.07830       -2.27457
C         -1.21832        1.23723       -2.39379
H         -0.21447        0.91132       -2.11974
C         -3.81201        1.99990       -3.07852
H         -4.82944        2.29210       -3.34891
C         -1.44951        2.47965       -2.97859
H         -0.60586        3.14823       -3.16565
C         -2.74648        2.86755       -3.31914
H         -2.92545        3.84270       -3.77739
C         -4.32861       -1.44887        0.07589
C         -4.68825       -2.30696       -0.96469
H         -3.96645       -3.04042       -1.32689
C         -5.23631       -0.50314        0.55212
H         -4.94723        0.15524        1.37109
C         -5.94926       -2.20859       -1.54562
H         -6.25128       -2.86395       -2.36430
C         -6.50021       -0.40372       -0.02379
H         -7.22641        0.32975        0.33064
C         -6.84054       -1.25355       -1.06925
F         -8.04800       -1.15552       -1.62419
C         -2.40682        1.19020        1.27021
C         -2.69676        0.89338        2.60285
H         -2.21162        0.03969        3.07927
C         -2.99771        2.28522        0.64042
H         -2.75030        2.50730       -0.39825
C         -3.60911        1.67783        3.30326
H         -3.86033        1.46569        4.34387
C         -3.90599        3.07429        1.34135
H         -4.38787        3.93403        0.87266
C         -4.20587        2.75782        2.66133
F         -5.07939        3.50994        3.32956
C          3.34927       -0.11632        2.18894
C          3.99579        1.11595        2.11100
H          3.50820        1.94606        1.59932
C          3.93961       -1.19429        2.84845
H          3.40345       -2.14293        2.90715
C          5.25944        1.25773        2.68069
H          5.76968        2.22157        2.61663
C          5.20552       -1.04146        3.40925
H          5.67291       -1.88651        3.91999
C          5.87198        0.18156        3.32278
H          6.86464        0.29740        3.76317
C          4.05703       -1.42242       -0.97271
C          5.27254       -0.95496       -0.47470
H          5.43748       -0.92162        0.60247
C          3.83194       -1.48326       -2.34852
H          2.87480       -1.85454       -2.71772
C          6.26124       -0.52817       -1.35756
H          7.21987       -0.15443       -0.99391
C          4.81709       -1.05431       -3.23364
H          4.66473       -1.08576       -4.31382
C          6.02081       -0.57777       -2.72559
F          6.96518       -0.16487       -3.56956
C          2.01620        1.39554       -0.67572
C          3.16306        1.86347       -1.31437
H          3.77009        1.17751       -1.90504
C          1.21760        2.25693        0.07778
H          0.31910        1.86307        0.55342
C          3.52581        3.20214       -1.18476
H          4.41998        3.59569       -1.67109
C          1.58107        3.59359        0.21191
H          0.97719        4.28792        0.79865
C          2.73334        4.04976       -0.41962
F          3.08214        5.32955       -0.29342
