108
Cat405.ts34.5.log	Energy: -2534615.7860777
C         -1.07222        2.71473        2.42416
H         -2.09126        2.96001        2.10654
H         -0.96200        2.62484        3.50877
C          0.01384        3.21436        1.66311
H         -0.20272        3.89948        0.83820
H          0.96467        3.43673        2.15633
H          0.10205        2.15942        0.35864
Co        -0.17445        1.19095        1.44816
C          2.85308        1.89114        0.32335
C          2.86922       -0.72979        1.38022
C          1.38785       -0.20927       -1.10515
C         -1.80523       -1.30763       -0.35696
C         -3.43960        0.47033        1.19265
C         -2.25445        1.44507       -1.30594
P         -1.83352        0.46314        0.22610
P          1.67899        0.48410        0.59411
C         -0.29269        0.30126        2.92734
O         -0.44997       -0.24462        3.93630
C          3.11584        2.36208       -0.97107
H          2.68217        1.85753       -1.83517
C          3.41557        2.58469        1.42145
C          3.16615        2.19271        2.85015
H          3.90691        1.45770        3.20480
H          2.16303        1.75139        2.96515
H          3.24122        3.06777        3.51108
C          3.93045        3.46732       -1.20091
H          4.11791        3.79966       -2.22467
C          4.22788        3.69733        1.16920
H          4.65509        4.23344        2.02138
C          4.49588        4.13962       -0.12194
H          5.13607        5.01027       -0.28235
H          3.76807       -0.73096        0.74756
H          3.14522       -0.25863        2.33191
C          2.43174       -2.14151        1.64319
C          1.72606       -2.47442        2.80653
H          1.44250       -1.69593        3.51578
C          2.80561       -3.17189        0.77372
H          3.38361       -2.93004       -0.12032
C          1.41115       -3.80252        3.08189
H          0.87332       -4.04927        4.00060
C          2.48391       -4.50892        1.02699
C          2.85355       -5.57602        0.03874
H          2.07663       -5.66567       -0.73961
H          3.79444       -5.33748       -0.47787
H          2.95692       -6.55951        0.51981
C          1.78734       -4.81525        2.20088
H          1.54067       -5.85643        2.42787
H          0.44038       -0.74871       -0.98595
H          1.13450        0.66661       -1.72534
C          2.35636       -1.12688       -1.79132
C          1.86472       -2.32762       -2.31988
H          0.80222       -2.56425       -2.21470
C          3.72556       -0.85887       -1.91016
H          4.13209        0.06762       -1.49801
C          2.72347       -3.23058       -2.94003
H          2.32794       -4.16781       -3.33938
C          4.60411       -1.75966       -2.52175
C          6.06683       -1.44206       -2.64155
H          6.36261       -0.63930       -1.95143
H          6.68916       -2.32419       -2.42884
H          6.31553       -1.10878       -3.66283
C          4.08546       -2.95515       -3.03408
H          4.75718       -3.67554       -3.50936
C         -1.09647       -2.13407        0.52976
H         -0.61844       -1.67755        1.39820
C         -2.40348       -1.90059       -1.49815
C         -3.23787       -1.18368       -2.52301
H         -2.63679       -0.52541       -3.16710
H         -4.02586       -0.57615       -2.06035
H         -3.73121       -1.91490       -3.17702
C         -0.95702       -3.50271        0.33044
H         -0.38906       -4.09535        1.04823
C         -2.22541       -3.27927       -1.69391
H         -2.67734       -3.73514       -2.57928
C         -1.51815       -4.07987       -0.80293
H         -1.40944       -5.15018       -0.99549
H         -3.19288       -0.07895        2.11411
H         -3.60511        1.51776        1.48511
C         -4.62879       -0.11337        0.50505
C         -5.53001        0.69144       -0.20734
H         -5.41131        1.77809       -0.19864
C         -4.82951       -1.49816        0.50360
H         -4.13603       -2.13314        1.06192
C         -6.57897        0.11529       -0.91877
H         -7.27648        0.75120       -1.46937
C         -5.86847       -2.09496       -0.21685
C         -6.01088       -3.58886       -0.22856
H         -5.10358       -4.06137       -0.63867
H         -6.14602       -3.98493        0.79024
H         -6.86935       -3.91059       -0.83456
C         -6.74104       -1.26929       -0.93386
H         -7.55980       -1.71623       -1.50420
H         -1.64393        1.00656       -2.10729
H         -3.30930        1.28989       -1.56940
C         -1.95199        2.90743       -1.19606
C         -2.82694        3.78396       -0.54433
H         -3.75825        3.40411       -0.11770
C         -0.77810        3.43068       -1.74894
H         -0.09237        2.75563       -2.26970
C         -2.52291        5.13908       -0.44536
H         -3.21411        5.81468        0.06414
C         -0.45023        4.78699       -1.65405
C          0.84622        5.30152       -2.20600
H          1.66006        5.16154       -1.47530
H          1.13831        4.76237       -3.11929
H          0.78837        6.37371       -2.44193
C         -1.34361        5.63818       -0.99350
H         -1.11119        6.70310       -0.90926
