96
Cat482.ts34.5.log	Energy: -2669832.1229055
C         -0.76025       -4.19167        0.46607
H         -0.60051       -4.71282        1.41325
H         -1.79089       -4.23878        0.10059
C          0.30888       -4.09804       -0.45430
H          1.30200       -4.46639       -0.17983
H          0.09323       -4.18897       -1.52462
H          0.33055       -2.47686       -0.90272
Co         0.01532       -2.32606        0.53645
O         -2.05351       -0.91948       -1.51890
O         -3.09124       -1.55195        0.71732
O         -1.47696        0.44142        0.56126
O          2.06845       -0.19457        1.66575
O          3.09034       -1.88980        0.02592
O          1.63592        0.01345       -0.83812
P          1.67055       -1.12211        0.36425
P         -1.62668       -1.13546        0.06683
C          0.02698       -2.38395        2.28135
O          0.00920       -2.38607        3.43009
C         -2.28680        0.27285       -2.15754
C         -3.58650        0.62492       -2.51879
H         -4.41331       -0.04307       -2.27510
C         -1.20975        1.10697       -2.45800
H         -0.20546        0.79509       -2.16963
C         -3.80417        1.83779       -3.17067
H         -4.82261        2.11835       -3.44993
C         -1.44169        2.32097       -3.09912
H         -0.59763        2.97984       -3.31654
C         -2.73923        2.69306       -3.45455
H         -2.91935        3.64643       -3.95641
C         -4.32589       -1.44263        0.12701
C         -4.69650       -2.34504       -0.86983
H         -3.98557       -3.10848       -1.19007
C         -5.21854       -0.45655        0.54158
H         -4.92398        0.24379        1.32321
C         -5.95078       -2.24240       -1.46342
H         -6.22565       -2.94708       -2.25312
C         -6.47077       -0.36925       -0.06131
H         -7.15952        0.41525        0.26418
C         -6.86149       -1.25158       -1.07508
C         -8.22279       -1.16220       -1.70187
H         -8.94489       -1.80836       -1.17485
H         -8.20521       -1.48446       -2.75330
H         -8.61654       -0.13612       -1.66558
C         -2.38800        1.22993        1.21409
C         -2.68147        0.98440        2.55522
H         -2.20326        0.14471        3.06291
C         -2.97692        2.30178        0.54781
H         -2.73370        2.48298       -0.49988
C         -3.59537        1.79959        3.21591
H         -3.83210        1.59322        4.26333
C         -3.88498        3.10998        1.22727
H         -4.35365        3.94248        0.69527
C         -4.21751        2.87412        2.56640
C         -5.18229        3.76325        3.29643
H         -4.65007        4.55141        3.85516
H         -5.78065        3.19702        4.02534
H         -5.87304        4.26386        2.60276
C          3.31055       -0.00412        2.21549
C          3.94732        1.22731        2.06913
H          3.46002        2.01941        1.49978
C          3.90311       -1.03357        2.94702
H          3.37426       -1.98175        3.05683
C          5.20272        1.41497        2.64363
H          5.70586        2.37739        2.52433
C          5.16053       -0.83480        3.51220
H          5.62928       -1.64282        4.07873
C          5.81724        0.38678        3.35833
H          6.80387        0.53869        3.80154
C          4.06580       -1.49775       -0.85898
C          5.27363       -0.99048       -0.38679
H          5.43140       -0.88445        0.68685
C          3.85181       -1.64171       -2.22911
H          2.89816       -2.03760       -2.58219
C          6.25575       -0.60844       -1.29707
H          7.19683       -0.20036       -0.91836
C          4.84305       -1.25217       -3.12477
H          4.66165       -1.35563       -4.19812
C          6.06178       -0.72492       -2.67848
C          7.13628       -0.33054       -3.64995
H          7.78633        0.45347       -3.23541
H          6.71083        0.04139       -4.59348
H          7.77978       -1.19098       -3.89921
C          2.03108        1.32973       -0.74720
C          3.19372        1.75096       -1.38573
H          3.80819        1.02918       -1.92425
C          1.23168        2.24063       -0.05689
H          0.32177        1.88422        0.42654
C          3.56338        3.09250       -1.31001
H          4.48343        3.41605       -1.80441
C          1.61912        3.57477        0.00955
H          0.99209        4.28065        0.56123
C          2.79167        4.02728       -0.61105
C          3.18599        5.47469       -0.55030
H          4.25143        5.61265       -0.78336
H          2.99575        5.90274        0.44527
H          2.60983        6.07341       -1.27551
