104
Cat402.ts34.5.log	Energy: -2250901.9310178
C          0.29018        2.06437       -2.74134
H          0.10909        3.13215       -2.58879
H          1.25105        1.85338       -3.22681
C         -0.82523        1.22346       -3.03193
H         -1.83421        1.64973       -3.01269
H         -0.71748        0.47214       -3.82468
H         -0.57549       -0.08180       -2.08527
Co        -0.16265        0.97887       -1.12293
C          2.06075       -1.77353       -1.06375
C          3.27874        0.81585       -1.16787
C          1.96681       -0.02363        1.22747
C         -1.36260       -1.35506        1.10945
C         -2.58736        1.24012        1.23282
C         -3.20281       -0.44911       -0.96838
P         -1.75265        0.09736        0.03831
P          1.71911       -0.01607       -0.60409
C         -0.06557        2.38908       -0.13379
O          0.02897        3.31179        0.56014
C          2.17888       -2.76526       -0.07944
H          2.09656       -2.50232        0.97440
C          2.12159       -2.16328       -2.42184
C          1.97516       -1.17654       -3.54312
H          2.95082       -0.76204       -3.84534
H          1.33474       -0.33724       -3.24231
H          1.53502       -1.65204       -4.43122
C          2.37222       -4.10450       -0.40744
H          2.45804       -4.84883        0.38795
C          2.31320       -3.51371       -2.73373
H          2.35254       -3.80743       -3.78666
C          2.44418       -4.48389       -1.74413
H          2.59355       -5.53103       -2.01828
H          3.31364        0.75320       -2.26601
H          4.13390        0.23429       -0.79042
C          3.34802        2.27481       -0.74175
H          2.47928        2.80206       -1.16564
H          3.24092        2.36171        0.35459
C          4.62775        3.00169       -1.16261
H          4.74142        2.86711       -2.25533
C          4.49873        4.49508       -0.88525
H          3.62731        4.92596       -1.40205
H          5.39455        5.04577       -1.21220
H          4.36814        4.68135        0.19392
C          5.86984        2.43052       -0.48690
H          6.77789        2.96699       -0.80338
H          6.01861        1.36541       -0.71954
H          5.79361        2.52551        0.60979
H          1.21278       -0.72293        1.62304
H          1.62283        0.96972        1.55434
C          3.35019       -0.32992        1.78923
H          3.84352       -1.11579        1.19389
H          3.99494        0.56178        1.69493
C          3.33204       -0.77626        3.25390
H          2.72166       -1.69908        3.30566
C          4.74010       -1.11765        3.72538
H          5.20276       -1.88610        3.08635
H          4.73957       -1.49435        4.76016
H          5.38934       -0.22651        3.69637
C          2.68015        0.25702        4.16580
H          2.69559       -0.07488        5.21567
H          1.63056        0.44188        3.89247
H          3.21555        1.22024        4.11300
C         -1.23966       -1.16364        2.49505
H         -1.44785       -0.18523        2.92961
C         -1.06091       -2.62570        0.56938
C         -1.12996       -2.92178       -0.89947
H         -0.76254       -2.07004       -1.49026
H         -2.16289       -3.13939       -1.21728
H         -0.50971       -3.79348       -1.14847
C         -0.83557       -2.18992        3.34339
H         -0.74089       -2.00389        4.41577
C         -0.67554       -3.65070        1.44295
H         -0.44126       -4.63111        1.01982
C         -0.55746       -3.44741        2.81367
H         -0.24406       -4.26703        3.46471
H         -1.79420        1.66149        1.87142
H         -3.26638        0.67192        1.88708
C         -3.31649        2.37371        0.51946
H         -2.73022        2.67631       -0.36573
H         -4.28693        2.00965        0.13588
C         -3.55897        3.60984        1.38701
H         -2.56702        3.96329        1.72392
C         -4.19309        4.72028        0.55867
H         -3.56912        4.97373       -0.31240
H         -4.33041        5.63693        1.15292
H         -5.18467        4.41522        0.18350
C         -4.39900        3.29420        2.61912
H         -4.56582        4.19600        3.22848
H         -3.91905        2.54388        3.26566
H         -5.38851        2.90155        2.32838
H         -2.81942       -1.07297       -1.78822
H         -3.55761        0.47653       -1.44808
C         -4.31867       -1.15588       -0.21760
H         -3.89800       -2.01685        0.32921
H         -4.73604       -0.48682        0.55651
C         -5.46662       -1.64633       -1.10461
H         -5.02748       -2.30528       -1.87813
C         -6.44969       -2.47577       -0.28676
H         -5.94961       -3.32612        0.20248
H         -7.26032       -2.87592       -0.91533
H         -6.91392       -1.86340        0.50440
C         -6.17960       -0.50064       -1.81446
H         -7.01114       -0.87221       -2.43303
H         -5.50507        0.06378       -2.47557
H         -6.60155        0.20866       -1.08205
