88
Cat425.ts34.5.log	Energy: -2775134.7993793
C          0.16429        1.17900       -3.50596
H          1.20378        1.51703       -3.55091
H         -0.16729        0.59432       -4.36787
C         -0.78798        1.94658       -2.79619
H         -0.50041        2.93611       -2.42240
H         -1.84664        1.89129       -3.06755
H         -0.47253        1.59119       -1.19117
Co        -0.28323        0.24211       -1.76943
C         -2.94232        1.24935       -0.00524
O         -2.90383       -1.29222       -0.95832
O         -1.50838       -0.62043        1.11898
C          2.57640       -1.23656       -0.47440
O          2.71664        1.22506       -1.57869
O          1.70573        0.87029        0.75408
P          1.58328        0.24919       -0.80207
P         -1.84160       -0.12104       -0.44520
C         -0.42794       -1.25974       -2.63117
O         -0.53266       -2.25401       -3.20093
C         -2.63834        2.09423        1.06472
H         -1.79596        1.86614        1.71895
C         -4.01429        1.54865       -0.85168
H         -4.24340        0.88560       -1.69101
C         -3.41047        3.23364        1.27562
H         -3.16245        3.91102        2.09639
C         -4.80847        2.67858       -0.63626
C         -5.99243        2.96088       -1.51411
H         -6.21680        4.03632       -1.55644
H         -5.82851        2.60217       -2.54054
H         -6.89203        2.45141       -1.13043
C         -4.48400        3.52004        0.43537
H         -5.08308        4.41797        0.61051
C         -4.10489       -1.66113       -0.41292
C         -4.44131       -1.47142        0.92922
H         -3.73044       -1.00698        1.61145
C         -5.01112       -2.26872       -1.28464
H         -4.71872       -2.40969       -2.32673
C         -5.69009       -1.88354        1.38966
H         -5.97730       -1.74455        2.43338
C         -6.25545       -2.68499       -0.82375
H         -6.97744       -3.16335       -1.48791
C         -6.58297       -2.48317        0.51204
F         -7.77711       -2.87552        0.95827
C         -0.61507       -1.61354        1.40825
C         -0.39167       -2.69918        0.55810
H         -0.94823       -2.79316       -0.37462
C          0.06166       -1.52970        2.62595
H         -0.14996       -0.68650        3.28382
C          0.53467       -3.67746        0.91174
H          0.73888       -4.52321        0.25413
C          0.97861       -2.51012        2.98678
H          1.52011       -2.46162        3.93314
C          1.21280       -3.56771        2.11566
F          2.11035       -4.50013        2.44989
C          2.61052       -2.21926       -1.46853
H          2.01655       -2.10678       -2.37780
C          3.33547       -1.40054        0.68763
H          3.30197       -0.62795        1.45693
C          3.40429       -3.34940       -1.29273
H          3.43376       -4.11832       -2.06844
C          4.13038       -2.53379        0.87806
C          4.90295       -2.72284        2.14943
H          5.88319       -3.18513        1.96169
H          5.06693       -1.76676        2.66595
H          4.35003       -3.38898        2.83160
C          4.15433       -3.50492       -0.12950
H          4.76789       -4.40016        0.00392
C          4.03085        1.27028       -1.18895
C          4.43513        2.12563       -0.16339
H          3.69932        2.76374        0.32819
C          4.96343        0.45471       -1.83142
H          4.62563       -0.21249       -2.62559
C          5.77227        2.16095        0.22500
H          6.11499        2.82163        1.02329
C          6.29981        0.48558       -1.44650
H          7.04641       -0.14671       -1.92997
C          6.68724        1.33680       -0.41829
F          7.96661        1.36535       -0.04294
C          1.11822        2.01311        1.18459
C          0.88000        3.11185        0.35024
H          1.20063        3.08163       -0.69169
C          0.78176        2.08887        2.53954
H          1.01029        1.23769        3.18105
C          0.25071        4.24772        0.85659
H          0.03685        5.10597        0.21742
C          0.16807        3.22773        3.05066
H         -0.10912        3.29993        4.10388
C         -0.11013        4.28788        2.19566
F         -0.74031        5.36323        2.67465
