70
Cat495.ts34.5.log	Energy: -2049470.0778028
C          1.57366       -3.91908       -0.76650
H          2.38407       -4.44910       -0.25798
H          0.62808       -4.47232       -0.76604
C          1.89295       -3.11690       -1.90282
H          2.94179       -2.97749       -2.18552
H          1.23835       -3.17179       -2.78122
H          0.95628       -1.79061       -1.62697
Co         1.48768       -1.98558       -0.26022
O         -1.26353       -0.47314       -0.45462
C         -1.71765       -3.14119        0.18106
C         -0.81832       -1.22591        2.13827
O          1.33081        0.98005        0.75296
C          3.79825        0.51655       -0.25631
C          1.54371        0.85868       -2.04199
P          2.03517        0.04393       -0.46564
P         -0.52280       -1.74786        0.40031
C          2.55075       -2.26841        1.08162
O          3.24439       -2.46085        1.98575
C         -2.58943       -0.16868       -0.47153
C         -3.16537        0.63141        0.51780
H         -2.54514        1.00581        1.33361
C         -3.37864       -0.61434       -1.53625
H         -2.91245       -1.21963       -2.31632
C         -4.52181        0.94569        0.45425
H         -4.96049        1.56682        1.24024
C         -4.73014       -0.29290       -1.58610
H         -5.33527       -0.65751       -2.42121
C         -5.33195        0.48773       -0.58952
C         -6.78938        0.84106       -0.66308
H         -7.14949        1.26316        0.28571
H         -7.40591       -0.04016       -0.89773
H         -6.97963        1.58792       -1.45163
H         -1.13082       -4.02791        0.47414
C         -3.05508       -3.13462        0.90837
H         -3.67952       -2.27329        0.63563
H         -2.92228       -3.12013        2.00020
H         -1.85319       -3.23698       -0.90995
H         -3.62346       -4.04588        0.66393
H         -1.88930       -1.01849        2.28973
C         -0.31258       -2.24344        3.15133
H          0.76485       -2.42659        3.03669
H         -0.82651       -3.21309        3.05675
H         -0.27198       -0.27441        2.23468
H         -0.48138       -1.88282        4.17745
C          1.07473        2.31693        0.68953
C         -0.13725        2.76431        0.15892
H         -0.84742        2.02675       -0.21630
C          1.99365        3.24053        1.18905
H          2.92859        2.88027        1.62247
C         -0.40774        4.12765        0.10558
H         -1.35705        4.46434       -0.32084
C          1.70797        4.60275        1.12841
H          2.43843        5.31848        1.51621
C          0.50815        5.07416        0.58326
C          0.19411        6.54199        0.54538
H         -0.37782        6.80869       -0.35569
H          1.10939        7.15107        0.56057
H         -0.41330        6.84117        1.41619
H          4.04668        0.24199        0.78187
C          4.70523       -0.21320       -1.23510
H          4.49694        0.07186       -2.27852
H          4.56156       -1.30125       -1.15312
H          3.90334        1.61035       -0.33977
H          5.76436        0.00893       -1.03622
H          0.44206        0.87892       -2.00678
C          2.13710        2.20585       -2.42518
H          3.23099        2.15362       -2.53318
H          1.90804        2.99132       -1.69244
H          1.79145        0.09758       -2.80079
H          1.73115        2.53184       -3.39545
