96
Cat474.ts34.5.log	Energy: -2669741.6389957
C         -0.59531       -3.68307       -0.28107
H         -0.21044       -4.40363        0.44590
H         -1.68551       -3.69415       -0.38050
C          0.20927       -3.34043       -1.39435
H          1.22179       -3.74662       -1.48913
H         -0.27284       -3.18634       -2.36577
H          0.11577       -1.60317       -1.45144
Co         0.19800       -1.84879        0.00274
O         -1.84793        0.30439       -1.12915
C         -3.16872       -1.48441        0.42578
C         -1.52952        0.57969        1.58042
O          2.01066        0.42543        1.21672
C          3.34095       -0.90055       -0.77953
C          1.29462        1.01926       -1.32421
P          1.68712       -0.38075       -0.23164
P         -1.55576       -0.64913        0.22669
C          0.77002       -2.34824        1.56651
O          1.14073       -2.66107        2.61481
C         -2.93891        0.98062       -1.56907
C         -2.85117        1.47185       -2.87777
H         -1.94080        1.26596       -3.44209
C         -4.09185        1.22436       -0.81492
H         -4.17615        0.84464        0.20250
C         -3.89771        2.20883       -3.42089
H         -3.80985        2.58900       -4.44193
C         -5.13582        1.96105       -1.37436
H         -6.03135        2.14507       -0.77562
C         -5.04906        2.45998       -2.67208
H         -5.87269        3.03655       -3.09869
C         -3.84031       -1.59062        1.65145
H         -3.43745       -1.09716        2.53917
C         -3.72221       -2.11762       -0.69125
H         -3.22023       -2.04334       -1.66020
C         -5.02659       -2.30185        1.75237
H         -5.55811       -2.38687        2.70208
C         -4.91895       -2.82549       -0.60612
H         -5.32637       -3.29248       -1.50292
C         -5.57945       -2.92383        0.62428
O         -6.73769       -3.58496        0.81472
C         -7.33821       -4.22270       -0.27702
H         -6.68780       -5.00644       -0.70420
H         -8.25707       -4.69095        0.09806
H         -7.60294       -3.50783       -1.07623
C         -1.10261        0.15765        2.85161
H         -0.83429       -0.88766        3.01939
C         -1.79153        1.93833        1.39480
H         -2.08923        2.31033        0.41424
C         -0.98579        1.05188        3.90193
H         -0.65308        0.72630        4.88901
C         -1.65848        2.85376        2.43953
H         -1.86804        3.90690        2.25033
C         -1.26112        2.41283        3.70587
O         -1.10727        3.21337        4.77765
C         -1.33512        4.58627        4.63268
H         -2.37641        4.80159        4.33370
H         -1.14664        5.04247        5.61278
H         -0.65302        5.03958        3.89156
C          3.24835        0.87431        1.57721
C          3.65547        2.17310        1.26780
H          2.97883        2.82858        0.71769
C          4.09986        0.01814        2.27864
H          3.74995       -0.98880        2.51417
C          4.92321        2.60658        1.65280
H          5.24119        3.62307        1.40774
C          5.36507        0.45906        2.65468
H          6.03107       -0.21562        3.19808
C          5.78364        1.75264        2.34079
H          6.77811        2.09515        2.63535
C          4.28897       -0.00894       -1.31044
H          4.01568        1.03370       -1.48642
C          3.71779       -2.22760       -0.56819
H          2.97939       -2.92088       -0.15622
C          5.57144       -0.43551       -1.60556
H          6.32005        0.24736       -2.01111
C          5.00606       -2.67140       -0.85879
H          5.26651       -3.71440       -0.67847
C          5.94358       -1.77022       -1.37720
O          7.21140       -2.09163       -1.68852
C          7.65086       -3.40419       -1.47345
H          7.07756       -4.13242       -2.07358
H          8.70261       -3.43831       -1.78421
H          7.58321       -3.68954       -0.40901
C          1.34354        0.86452       -2.71752
H          1.77729       -0.04130       -3.15066
C          0.72997        2.18124       -0.80102
H          0.66909        2.30483        0.28207
C          0.83299        1.84062       -3.55710
H          0.85896        1.72954       -4.64289
C          0.20000        3.16550       -1.63415
H         -0.25675        4.05006       -1.18987
C          0.23176        2.98984       -3.02075
O         -0.30309        3.84936       -3.90876
C         -1.04162        4.93869       -3.42703
H         -0.41555        5.63284       -2.83894
H         -1.42562        5.47084       -4.30662
H         -1.89358        4.60663       -2.80828
