96
Cat421.ts34.5.log	Energy: -2436014.4103756
C          0.76713        0.17793        3.38909
H          0.36867       -0.53004        4.12179
H          1.85319        0.30690        3.43919
C         -0.03907        1.27108        2.98700
H         -1.07170        1.35691        3.34261
H          0.43789        2.24889        2.84905
H          0.17394        1.27674        1.29581
Co         0.04134       -0.16751        1.53863
C          1.95186        1.22169       -0.81834
C          3.44665       -0.33304        1.09320
C          2.05675       -1.65825       -0.89153
C         -2.16226       -1.33853       -0.74801
C         -3.24047        0.43986        1.20114
C         -1.70166        1.49419       -0.92954
P         -1.67795        0.10408        0.27840
P          1.79461       -0.24769        0.27042
C         -0.36137       -1.78509        2.02434
O         -0.61180       -2.86208        2.36184
C          1.56822        1.20698       -2.16243
H          1.26181        0.27221       -2.63597
C          2.32251        2.44234       -0.23795
H          2.59309        2.47068        0.82248
C          1.57690        2.38657       -2.90440
H          1.25753        2.36957       -3.94892
C          2.36907        3.62646       -0.97709
C          2.84420        4.90296       -0.34489
H          2.56773        4.95399        0.71867
H          3.94295        4.98288       -0.39781
H          2.42770        5.78584       -0.85059
C          1.98622        3.58249       -2.32343
H          1.99890        4.50024       -2.91798
C          3.56612       -1.23126        2.15897
H          2.68666       -1.78649        2.49558
C          4.57974        0.36807        0.66663
H          4.50234        1.06393       -0.17260
C          4.79962       -1.42013        2.77757
H          4.88842       -2.12739        3.60597
C          5.82177        0.19793        1.28616
C          7.02624        0.96705        0.82429
H          7.85983        0.29255        0.57292
H          6.80001        1.57150       -0.06537
H          7.38905        1.64896        1.61040
C          5.91653       -0.70766        2.34983
H          6.87958       -0.85647        2.84675
C          3.05828       -1.63020       -1.87380
H          3.67695       -0.73896       -2.00182
C          1.29966       -2.81616       -0.72833
H          0.52267       -2.84349        0.03642
C          3.26651       -2.74130       -2.68141
H          4.04212       -2.71663       -3.45106
C          1.51327       -3.95447       -1.51902
C          0.68803       -5.18669       -1.29418
H          0.83720       -5.57963       -0.27606
H         -0.38536       -4.96177       -1.39621
H          0.94445       -5.98279       -2.00740
C          2.49955       -3.89569       -2.50469
H          2.67858       -4.76828       -3.13935
C         -1.39730       -1.66317       -1.87685
H         -0.55618       -1.03175       -2.16790
C         -3.21388       -2.17887       -0.37712
H         -3.81285       -1.93500        0.50408
C         -1.70954       -2.78889       -2.62943
H         -1.11235       -3.03112       -3.51175
C         -3.52551       -3.32989       -1.11269
C         -4.64099       -4.23085       -0.66831
H         -4.34111       -4.81897        0.21467
H         -5.53319       -3.65327       -0.38292
H         -4.92863       -4.93900       -1.45823
C         -2.76640       -3.61731       -2.25037
H         -3.00314       -4.50363       -2.84570
C         -3.34572       -0.00026        2.52261
H         -2.49143       -0.49838        2.98702
C         -4.32986        1.08899        0.60795
H         -4.24953        1.44292       -0.42317
C         -4.53372        0.19071        3.22775
H         -4.61614       -0.16233        4.25870
C         -5.52201        1.29802        1.30538
C         -6.67604        2.01488        0.66599
H         -6.81792        3.01276        1.11243
H         -6.51508        2.15290       -0.41228
H         -7.61838        1.46250        0.80351
C         -5.60974        0.83470        2.62555
H         -6.53567        0.98651        3.18796
C         -2.24282        1.39061       -2.21469
H         -2.63584        0.43748       -2.57205
C         -1.22372        2.73632       -0.49619
H         -0.79461        2.82352        0.50529
C         -2.28408        2.51056       -3.04501
H         -2.69811        2.42056       -4.05253
C         -1.28002        3.87062       -1.30674
C         -0.80244        5.20141       -0.80583
H         -1.65322        5.86189       -0.56992
H         -0.19989        5.09331        0.10630
H         -0.18917        5.71641       -1.56041
C         -1.80897        3.73800       -2.59683
H         -1.84666        4.61028       -3.25572
