112
Cat480.ts34.5.log	Energy: -2956991.0698598
C          0.47549       -2.38636       -2.74774
H         -0.03526       -2.31180       -3.71258
H          1.56606       -2.43910       -2.82688
C         -0.17422       -3.04991       -1.67537
H         -1.20910       -3.38221       -1.78930
H          0.42428       -3.69963       -1.02499
H          0.10033       -2.00936       -0.36105
Co        -0.22977       -1.03913       -1.42036
O          1.25219        0.07895        1.05669
C          2.85920       -1.46704       -0.62282
C          2.46018        1.37990       -0.94877
O         -1.43028        1.21453        0.33520
C         -3.50069       -0.45437       -0.28292
C         -1.60239       -1.10858        1.70503
P         -1.67769       -0.40405        0.00267
P          1.53971       -0.18036       -0.58436
C         -0.90526       -0.17367       -2.76001
O         -1.37490        0.34363       -3.68302
C          1.90177        0.80102        1.99067
C          2.55248        0.13431        3.03446
H          2.56284       -0.95518        3.01381
C          1.85421        2.19966        1.98268
H          1.31855        2.70398        1.17839
C          3.16054        0.86326        4.05382
H          3.66537        0.33444        4.86686
C          2.47616        2.91934        3.00053
H          2.43977        4.01172        2.98195
C          3.13265        2.25944        4.04046
H          3.61370        2.82904        4.83902
C          3.72944       -1.52112       -1.72629
O          3.58158       -0.52641       -2.62495
C          4.42850       -0.44964       -3.73217
H          4.13188        0.44982       -4.28657
H          5.48668       -0.35192       -3.43204
H          4.32342       -1.32894       -4.39210
C          2.87859       -2.54827        0.27585
O          1.95855       -2.53236        1.26316
C          1.79175       -3.65272        2.08155
H          0.92850       -3.43586        2.72365
H          2.67862       -3.84017        2.71349
H          1.58156       -4.56189        1.49009
C          3.80496       -3.59144        0.13168
H          3.82819       -4.41338        0.84619
C          4.65968       -2.55421       -1.87939
H          5.34025       -2.57207       -2.72986
C          4.69369       -3.57634       -0.93643
H          5.41627       -4.38831       -1.04739
C          3.73052        1.62508       -0.38468
O          4.25771        0.62928        0.34550
C          5.40125        0.84996        1.11924
H          5.57133       -0.07556        1.68336
H          6.28718        1.05478        0.49303
H          5.25146        1.67989        1.83033
C          1.86672        2.41384       -1.70271
O          0.65616        2.18240       -2.22849
C          0.02466        3.18232       -2.98243
H         -0.89945        2.73730       -3.36401
H          0.64942        3.50007       -3.83510
H         -0.22770        4.05861       -2.36116
C          2.52291        3.64414       -1.87485
H          2.05381        4.44496       -2.44309
C          4.39088        2.84557       -0.56243
H          5.36689        3.02152       -0.11280
C          3.77300        3.84281       -1.30589
H          4.27629        4.80362       -1.44044
C         -1.98092        2.33838       -0.13700
C         -1.67935        3.51247        0.57074
H         -1.03834        3.42447        1.44913
C         -2.80118        2.41458       -1.27000
H         -3.02582        1.52012       -1.84825
C         -2.18972        4.73616        0.15396
H         -1.94094        5.64058        0.71554
C         -3.31635        3.64745       -1.66891
H         -3.95537        3.68890       -2.55477
C         -3.01919        4.81406       -0.96784
H         -3.42547        5.77468       -1.29176
C         -4.36256        0.29893        0.54194
O         -3.79480        0.87914        1.60863
C         -4.47446        1.87942        2.31128
H         -3.76174        2.27246        3.04676
H         -4.78517        2.69898        1.64099
H         -5.35748        1.48325        2.84285
C         -4.06188       -1.14087       -1.37749
O         -3.24340       -1.92867       -2.09499
C         -3.61172       -2.32448       -3.38637
H         -2.72734       -2.80595       -3.82398
H         -3.89003       -1.45882       -4.01034
H         -4.44390       -3.05053       -3.37719
C         -5.42103       -0.99989       -1.69111
H         -5.84809       -1.51708       -2.54942
C         -5.72116        0.43923        0.23502
H         -6.37472        1.04364        0.86273
C         -6.22926       -0.20607       -0.88593
H         -7.28817       -0.09691       -1.13306
C         -1.92329       -2.47771        1.75487
O         -2.34271       -2.99526        0.58334
C         -2.71771       -4.33683        0.49463
H         -3.05085       -4.49385       -0.53875
H         -1.87122       -5.01356        0.70648
H         -3.54968       -4.57434        1.18028
C         -1.22412       -0.47528        2.90638
O         -1.01054        0.84684        2.89943
C         -0.66931        1.49877        4.08915
H         -0.57167        2.56253        3.84025
H          0.29708        1.14917        4.48989
H         -1.45225        1.37846        4.85947
C         -1.10109       -1.23141        4.08582
H         -0.77986       -0.75246        5.00903
C         -1.82746       -3.22816        2.93053
H         -2.08177       -4.28724        2.94455
C         -1.39911       -2.58736        4.08803
H         -1.30631       -3.15516        5.01719
