80
Cat476.ts34.5.log	Energy: -3535760.1000721
C         -0.23843       -3.59709       -0.49314
H          0.16358       -4.29600        0.24512
H         -1.29816       -3.74769       -0.72396
C          0.62624       -3.08147       -1.48366
H          1.69247       -3.33005       -1.47036
H          0.23495       -2.94013       -2.49708
H          0.37583       -1.39549       -1.47361
Co         0.24466       -1.68365       -0.02370
O         -1.82613        0.28158       -1.46039
C         -3.10930       -1.78616       -0.29003
C         -2.15978        0.39954        1.26032
O          2.14607        0.40949        1.50964
C          3.35291       -0.65307       -0.70143
C          1.37213        1.39604       -0.83998
P          1.72167       -0.19565       -0.01382
P         -1.64555       -0.70717       -0.10028
C          0.44971       -2.19524        1.62185
O          0.54380       -2.52120        2.72439
C         -2.65051        1.36792       -1.55178
C         -2.23712        2.59163       -1.01995
H         -1.28273        2.64497       -0.49557
C         -3.87557        1.26906       -2.21344
H         -4.18922        0.30756       -2.62154
C         -3.04446        3.71574       -1.15927
H         -2.70803        4.67120       -0.75034
C         -4.68123        2.40006       -2.34272
H         -5.63912        2.32018       -2.86250
C         -4.27072        3.62473       -1.81840
H         -4.90401        4.50803       -1.92608
C         -3.49822       -2.20224       -1.56900
H         -3.00254       -1.77687       -2.44508
C         -3.72851       -2.36575        0.82424
H         -3.42484       -2.07214        1.83256
C         -4.50491       -3.14834       -1.73896
H         -4.81403       -3.46675       -2.73592
C         -4.73462       -3.31406        0.66866
H         -5.22367       -3.75911        1.53668
C         -5.12167       -3.69733       -0.61552
Cl        -6.37600       -4.87297       -0.81632
C         -1.17926        0.88333        2.13324
H         -0.14562        0.54287        2.03977
C         -3.48014        0.85038        1.40605
H         -4.25952        0.48972        0.73130
C         -1.50024        1.80421        3.12667
H         -0.73559        2.18015        3.80805
C         -3.81417        1.76885        2.39344
H         -4.83866        2.12741        2.50259
C         -2.81699        2.24405        3.24669
Cl        -3.22469        3.39449        4.47268
C          3.36678        0.23558        2.10543
C          4.44840        1.04218        1.74744
H          4.31852        1.80301        0.97596
C          3.50866       -0.74215        3.09019
H          2.64753       -1.35789        3.35465
C          5.68042        0.85615        2.36924
H          6.52788        1.48319        2.08231
C          4.74469       -0.91551        3.71010
H          4.85546       -1.68183        4.48104
C          5.83424       -0.12364        3.34969
H          6.80257       -0.26794        3.83371
C          3.87122       -1.89950       -0.32838
H          3.27087       -2.55790        0.30569
C          4.11479        0.18183       -1.52493
H          3.72579        1.15740       -1.82518
C          5.13708       -2.29749       -0.74078
H          5.55116       -3.26025       -0.43778
C          5.37483       -0.21386       -1.96371
H          5.97234        0.43156       -2.60946
C          5.88173       -1.44855       -1.56031
Cl         7.45430       -1.93734       -2.08823
C          1.51457        2.61710       -0.17314
H          1.85685        2.62539        0.86304
C          0.90934        1.39385       -2.16191
H          0.76082        0.44776       -2.68721
C          1.20595        3.81681       -0.81174
H          1.30310        4.76983       -0.28935
C          0.60788        2.58386       -2.81263
H          0.23291        2.58303       -3.83682
C          0.75109        3.79153       -2.12812
Cl         0.31549        5.27115       -2.90956
