100
Cat432.ts34.5.log	Energy: -2624674.1761382
C          0.67244        0.48666        3.34804
H          0.48075       -0.26525        4.11942
H          1.69627        0.87437        3.34489
C         -0.38508        1.33838        2.94695
H         -1.39317        1.19428        3.34851
H         -0.16198        2.39422        2.75429
H         -0.26570        1.33006        1.24266
Co        -0.01994       -0.08911        1.54172
C          1.36217        1.36329       -1.17930
C          3.12069        0.99295        1.06992
C          2.52419       -1.21510       -0.59043
C         -1.60236       -1.77124       -0.85658
C         -3.32918       -0.76085        1.19606
C         -2.32926        1.03745       -0.76491
P         -1.77002       -0.36017        0.30528
P          1.68242        0.21154        0.22460
C          0.08438       -1.71946        2.12736
O          0.20819       -2.78693        2.55500
C          1.57716        1.02499       -2.51873
H          2.02083        0.06213       -2.77593
C          0.77899        2.60471       -0.89210
H          0.56774        2.86547        0.14928
C          1.20957        1.90756       -3.53321
H          1.36328        1.62314       -4.57751
C          0.44475        3.51880       -1.89323
C         -0.10863        4.86986       -1.54685
H         -0.57776        4.86596       -0.55298
H          0.68953        5.63133       -1.53781
H         -0.86556        5.19214       -2.27618
C          0.65579        3.14607       -3.22616
H          0.37364        3.83276       -4.02909
C          3.56928        2.29265        0.84480
H          3.10664        2.88399        0.05220
C          3.74959        0.22986        2.07673
O          3.28458       -1.02231        2.23139
C          3.68260       -1.79640        3.32507
H          4.75016       -2.07275        3.26576
H          3.07120       -2.70692        3.29402
H          3.49860       -1.27253        4.27944
C          4.60677        2.84259        1.59980
H          4.94086        3.86405        1.40467
C          4.78825        0.77445        2.83721
H          5.27072        0.18204        3.61544
C          5.21170        2.08141        2.59483
H          6.02457        2.50055        3.19298
C          1.98144       -2.49101       -0.45168
H          1.04270       -2.60288        0.08894
C          3.75067       -1.08127       -1.28002
O          4.24303        0.16390       -1.39674
C          5.49529        0.37335       -1.97875
H          6.28923       -0.18316       -1.45098
H          5.69875        1.44832       -1.89399
H          5.50694        0.08834       -3.04592
C          2.61061       -3.61900       -0.97761
H          2.15360       -4.60269       -0.85546
C          4.38890       -2.20850       -1.81017
H          5.33454       -2.10765       -2.34337
C          3.81516       -3.47073       -1.65541
H          4.32468       -4.34277       -2.07341
C         -2.23824       -2.99552       -0.62333
H         -2.93999       -3.09938        0.20688
C         -0.68634       -1.67816       -1.90834
H         -0.14435       -0.74390       -2.06572
C         -1.96731       -4.08496       -1.44739
H         -2.46386       -5.04028       -1.25901
C         -0.41760       -2.75681       -2.75593
C          0.59703       -2.61270       -3.85178
H          0.45175       -1.67690       -4.41266
H          1.61514       -2.58774       -3.42808
H          0.55032       -3.45069       -4.56166
C         -1.07289       -3.96704       -2.51054
H         -0.87216       -4.82904       -3.15293
C         -3.28692       -0.90017        2.58106
H         -2.31291       -0.79369        3.06512
C         -4.56928       -0.89885        0.53657
O         -4.55063       -0.78830       -0.80180
C         -5.74278       -0.85559       -1.52740
H         -6.22863       -1.84231       -1.42849
H         -5.47402       -0.69341       -2.57879
H         -6.45549       -0.07194       -1.21615
C         -4.43786       -1.16402        3.32382
H         -4.38004       -1.27266        4.40869
C         -5.72938       -1.15429        1.27591
H         -6.69219       -1.26178        0.77550
C         -5.65588       -1.28352        2.66346
H         -6.57006       -1.48613        3.22738
C         -2.35314        1.00282       -2.15748
H         -2.05569        0.09019       -2.67290
C         -2.77165        2.21449       -0.12429
O         -2.76742        2.19466        1.22310
C         -3.23315        3.30083        1.93764
H         -2.62982        4.20413        1.73683
H         -3.14477        3.04474        3.00083
H         -4.29079        3.51985        1.70858
C         -2.77294        2.09926       -2.91078
H         -2.76841        2.04184       -4.00109
C         -3.20808        3.31191       -0.87174
H         -3.55525        4.21671       -0.37255
C         -3.20108        3.25187       -2.26465
H         -3.53995        4.11693       -2.84026
