98
Cat454.ts34.5.log	Energy: -3013078.1216331
C         -0.99753       -0.82515       -3.52243
H         -0.86338       -1.79416       -4.01040
H         -2.01822       -0.43208       -3.58728
C          0.09227        0.08341       -3.48595
H          1.06977       -0.22885       -3.86809
H         -0.10493        1.15075       -3.64234
H         -0.02705        0.63223       -1.89378
Co        -0.19404       -0.80877       -1.67542
C         -2.95893        1.07883       -1.29468
O         -2.86280       -1.49874       -0.25231
O         -1.75720        0.26877        1.04433
C          1.88478       -1.00485        1.13505
O          2.99155       -0.95773       -1.35388
O          1.85089        1.14970       -0.48902
P          1.57120       -0.48969       -0.59952
P         -1.86393       -0.22127       -0.57287
C         -0.24443       -2.55166       -1.62912
O         -0.34323       -3.69775       -1.58481
C         -2.39300        2.36768       -1.40302
O         -1.13501        2.47388       -0.94563
C         -0.49601        3.72126       -0.89082
H          0.50002        3.53315       -0.47597
H         -0.38979        4.16366       -1.89555
H         -1.04230        4.41839       -0.23397
C         -4.22194        0.86557       -1.88392
O         -4.67623       -0.39591       -1.91592
C         -6.00453       -0.65524       -2.27874
H         -6.16113       -1.72929       -2.11964
H         -6.19412       -0.41532       -3.33895
H         -6.71247       -0.09457       -1.64503
C         -4.94695        1.93850       -2.42312
H         -5.93712        1.77846       -2.84719
C         -3.10521        3.44023       -1.94726
H         -2.66706        4.43608       -1.99345
C         -4.38609        3.20965       -2.43709
H         -4.95608        4.04040       -2.85985
C         -4.03441       -1.63197        0.41993
C         -4.66675       -2.87204        0.28441
H         -4.19367       -3.62743       -0.34605
C         -4.61870       -0.64285        1.21365
H         -4.12615        0.31741        1.33924
C         -5.87576       -3.12404        0.92463
H         -6.38113       -4.08672        0.82717
C         -5.83284       -0.89079        1.85149
H         -6.30418       -0.12903        2.47533
C         -6.45031       -2.12508        1.70177
F         -7.61311       -2.35778        2.31552
C         -1.48708        1.45947        1.63722
C         -0.23713        1.65801        2.22891
H          0.51375        0.87243        2.15212
C         -2.46549        2.45459        1.74084
H         -3.44094        2.30784        1.27515
C          0.04022        2.84309        2.90402
H          1.00762        3.00790        3.38278
C         -2.18899        3.64557        2.40809
H         -2.93906        4.43399        2.49416
C         -0.93681        3.82812        2.98178
F         -0.67004        4.96781        3.62423
C          3.00682       -0.50951        1.83818
O          3.92290        0.12353        1.09567
C          5.07369        0.66074        1.68757
H          5.63166        1.15040        0.87985
H          4.82315        1.41530        2.45163
H          5.69687       -0.12972        2.13837
C          0.94469       -1.77904        1.85162
O         -0.02531       -2.35989        1.14386
C         -1.06333       -3.05138        1.79111
H         -1.71339       -3.42924        0.99528
H         -1.64564       -2.37665        2.43893
H         -0.67497       -3.89833        2.38087
C          1.05808       -1.93421        3.24116
H          0.31096       -2.49755        3.79700
C          3.13405       -0.68086        3.21972
H          3.99626       -0.28663        3.75525
C          2.14230       -1.37675        3.90403
H          2.22845       -1.50322        4.98591
C          3.79811       -1.98602       -0.97566
C          3.28558       -3.22612       -0.58634
H          2.20774       -3.39693       -0.57541
C          5.17904       -1.78041       -1.01055
H          5.55593       -0.80193       -1.31231
C          4.15382       -4.25220       -0.21951
H          3.77484       -5.22791        0.08915
C          6.04815       -2.80679       -0.65541
H          7.13086       -2.66960       -0.67742
C          5.52372       -4.03139       -0.25646
F          6.35625       -5.01430        0.09381
C          2.92789        1.96057       -0.61941
C          3.06805        2.99247        0.31400
H          2.35155        3.05374        1.13527
C          3.82661        1.86206       -1.68533
H          3.70486        1.06368       -2.41594
C          4.10606        3.91246        0.19856
H          4.22835        4.72517        0.91707
C          4.87376        2.77503       -1.79524
H          5.58805        2.71614       -2.61889
C          5.00474        3.78925       -0.85436
F          6.00650        4.66462       -0.96788
