84
Cat481.ts34.5.log	Energy: -2571228.3393618
C         -1.24071       -2.61292       -2.93196
H         -0.98716       -3.67225       -2.84104
H         -2.31261       -2.40413       -2.99516
C         -0.32276       -1.74174       -3.56833
H          0.65792       -2.11945       -3.87416
H         -0.70634       -0.96223       -4.23588
H         -0.32585       -0.41880       -2.54273
Co        -0.30553       -1.49734       -1.53413
O         -1.90273        1.14413       -0.60490
O         -3.38517       -0.76745       -1.37571
O         -2.29660       -0.72653        0.94156
O          1.23563        0.09024        0.66905
O          2.78367       -1.33922       -0.77481
O          1.85492        0.84219       -1.69695
P          1.36778       -0.49386       -0.87400
P         -1.91096       -0.50526       -0.65909
C          0.07180       -2.96332       -0.65425
O          0.34458       -3.93160       -0.10151
C         -2.19989        1.98501        0.44488
C         -1.33957        2.06533        1.53991
H         -0.46435        1.41656        1.57359
C         -3.31488        2.81399        0.35002
H         -3.97100        2.73162       -0.51759
C         -1.60970        2.98090        2.55328
H         -0.93543        3.04314        3.41089
C         -3.57259        3.72826        1.36990
H         -4.44912        4.37651        1.29736
C         -2.72576        3.81435        2.47417
H         -2.93392        4.53121        3.27163
C         -4.50800       -0.00797       -1.16695
C         -4.95396        0.80592       -2.20826
H         -4.38684        0.82264       -3.14060
C         -5.20113       -0.05817        0.04292
H         -4.83260       -0.69297        0.84871
C         -6.09690        1.58284       -2.03363
H         -6.44505        2.22134       -2.84911
C         -6.33929        0.72799        0.20827
H         -6.87665        0.69751        1.15893
C         -6.79045        1.55058       -0.82336
H         -7.68361        2.16397       -0.68598
C         -2.01445       -1.89940        1.58571
C         -1.07231       -1.88537        2.61245
H         -0.57914       -0.94575        2.86507
C         -2.66265       -3.08123        1.22540
H         -3.38999       -3.06728        0.41091
C         -0.77641       -3.06934        3.28279
H         -0.03408       -3.06061        4.08467
C         -2.35468       -4.26002        1.90043
H         -2.85182       -5.18955        1.61374
C         -1.41182       -4.25926        2.92720
H         -1.16924       -5.18759        3.44862
C          2.13801        0.04308        1.69951
C          2.71288        1.22863        2.15414
H          2.47099        2.16791        1.65432
C          2.41861       -1.17664        2.31748
H          1.94931       -2.08812        1.94359
C          3.59719        1.18363        3.23015
H          4.05509        2.10994        3.58488
C          3.30648       -1.20643        3.39065
H          3.53545       -2.16054        3.87125
C          3.90130       -0.02962        3.84771
H          4.59806       -0.05819        4.68827
C          4.04417       -0.88528       -1.07798
C          4.96068       -0.64644       -0.05509
H          4.66162       -0.79986        0.98182
C          4.40449       -0.70219       -2.41364
H          3.66867       -0.89635       -3.19547
C          6.24203       -0.20356       -0.37810
H          6.95823       -0.01210        0.42435
C          5.68622       -0.25493       -2.72357
H          5.96468       -0.10329       -3.76901
C          6.60837        0.00041       -1.70796
H          7.61229        0.35306       -1.95408
C          2.13460        2.08054       -1.16466
C          3.45690        2.50635       -1.05707
H          4.26487        1.85091       -1.38341
C          1.07991        2.89881       -0.76511
H          0.05766        2.53738       -0.88016
C          3.71898        3.76466       -0.51720
H          4.75435        4.10149       -0.42659
C          1.35538        4.14799       -0.21481
H          0.52757        4.77860        0.11781
C          2.67512        4.58337       -0.08537
H          2.88959        5.56341        0.34667
