114
Cat438.ts34.5.log	Energy: -2488859.6797832
C         -0.91561       -0.66975       -3.01774
H         -1.51793        0.00112       -3.63730
H          0.01893       -0.98815       -3.49121
C         -1.58948       -1.57038       -2.14796
H         -2.68129       -1.52632       -2.07527
H         -1.20271       -2.59435       -2.06721
H         -0.75552       -1.42632       -0.70564
Co        -0.75861       -0.00633       -1.12949
C          2.02453       -1.71122       -1.70418
C          2.34440        1.23778       -1.54008
C          2.11709       -0.29611        0.82302
C         -0.84889        1.42795        1.95849
C         -3.46260        0.87026        0.87633
C         -1.90747       -1.31699        1.77480
P         -1.70221        0.24741        0.80159
P          1.37451       -0.19346       -0.86715
C         -0.95723        1.58421       -1.77056
O         -0.99292        2.61633       -2.29975
C          1.83001       -2.96591       -1.08735
O          1.28174       -2.94090        0.14873
C          1.00417       -4.13855        0.81251
H          0.55602       -3.86258        1.77598
H          0.28476       -4.76139        0.25255
H          1.91840       -4.72831        1.00023
C          2.51462       -1.72416       -3.02559
O          2.60833       -0.52838       -3.64445
C          3.01762       -0.46212       -4.97927
H          2.98131        0.59788       -5.26189
H          2.34390       -1.03164       -5.64297
H          4.04941       -0.83166       -5.11415
C          2.86644       -2.91855       -3.66849
H          3.25947       -2.90735       -4.68400
C          2.17454       -4.16542       -1.72036
H          2.03017       -5.12228       -1.22082
C          2.69951       -4.12741       -3.00637
H          2.97228       -5.05952       -3.50644
H          3.40108        0.97844       -1.70616
H          1.90980        1.44906       -2.52573
C          2.20815        2.46150       -0.64044
H          1.18949        2.50094       -0.21587
H          2.88973        2.37665        0.22332
C          2.48460        3.76626       -1.37383
H          1.71148        3.90267       -2.15098
H          3.44826        3.69468       -1.91116
C          2.50920        4.98184       -0.45825
H          1.57328        5.00890        0.12679
H          3.31319        4.85687        0.28877
C          2.69288        6.29633       -1.19868
H          2.71431        7.15545       -0.51052
H          1.87546        6.46502       -1.91842
H          3.63573        6.30455       -1.76930
H          1.90861        0.68714        1.27323
H          1.52536       -1.02071        1.39386
C          3.59951       -0.61583        0.90503
H          3.80065       -1.57838        0.40443
H          4.18039        0.13899        0.34634
C          4.11080       -0.67602        2.33775
H          3.54956       -1.45436        2.88737
H          3.87948        0.27790        2.84778
C          5.60168       -0.96003        2.45124
H          5.82852       -1.90786        1.93171
H          6.15972       -0.18056        1.90293
C          6.09657       -1.03005        3.88686
H          7.17684       -1.23465        3.93820
H          5.58114       -1.82618        4.44867
H          5.91256       -0.08247        4.41894
C         -0.04426        1.06906        3.05994
O          0.02209       -0.24180        3.37572
C          0.78802       -0.66033        4.46765
H          0.67079       -1.75056        4.52733
H          1.85766       -0.42568        4.33501
H          0.43548       -0.21271        5.41322
C         -0.87760        2.79821        1.61376
O         -1.62387        3.11517        0.53907
C         -1.65957        4.43311        0.06323
H         -2.27248        4.41376       -0.84488
H         -0.65294        4.79293       -0.20541
H         -2.10919        5.11780        0.80277
C         -0.16784        3.76408        2.33642
H         -0.21369        4.81460        2.05402
C          0.67641        2.02842        3.78478
H          1.29490        1.73298        4.63069
C          0.60705        3.36565        3.41695
H          1.17013        4.11122        3.98298
H         -3.95978        0.37834        1.72974
H         -3.43120        1.94446        1.09648
C         -4.22840        0.64060       -0.41665
H         -3.65140        1.07897       -1.24779
H         -4.28117       -0.43859       -0.64170
C         -5.63533        1.21879       -0.39225
H         -5.58023        2.30081       -0.17112
H         -6.20644        0.77402        0.44383
C         -6.39815        1.00748       -1.69271
H         -5.82011        1.44923       -2.52352
H         -6.44797       -0.07447       -1.90954
C         -7.80153        1.59131       -1.67568
H         -8.32588        1.42230       -2.62865
H         -7.77929        2.67864       -1.49704
H         -8.41204        1.14143       -0.87587
H         -0.91329       -1.77842        1.84009
H         -2.21702       -1.06931        2.80174
C         -2.88773       -2.29398        1.14230
H         -3.90029       -1.85709        1.11073
H         -2.60286       -2.47898        0.09474
C         -2.94989       -3.62139        1.88582
H         -3.23537       -3.44317        2.93886
H         -1.93812       -4.06483        1.92315
C         -3.91174       -4.62225        1.26130
H         -4.92289       -4.17930        1.22862
H         -3.62580       -4.78486        0.20689
C         -3.95939       -5.95446        1.99167
H         -4.66236       -6.65568        1.51682
H         -4.27583       -5.82491        3.03935
H         -2.96859       -6.43731        2.00697
