60
Cat411.ts34.5.log	Energy: -2045233.1031829
C         -0.02943       -3.36851        1.37498
H          0.84711       -3.84637        1.82081
H         -0.86046       -3.20383        2.06592
C         -0.29094       -3.57772       -0.00101
H          0.41075       -4.16032       -0.60666
H         -1.32985       -3.71119       -0.32254
H         -0.63872       -2.01043       -0.57993
Co         0.47012       -1.70107        0.34807
C         -2.07813        0.58938        0.37829
O         -1.75132       -1.02999        2.49200
O         -0.20806        0.99054        2.12733
C          1.98182        1.00849       -0.83355
O          2.28400       -1.17442       -2.28626
O          0.05284        0.10670       -2.30284
P          1.15309       -0.54085       -1.26912
P         -0.81084       -0.32627        1.32943
C          2.02255       -1.74679        1.13057
O          3.03548       -1.78751        1.68131
C         -2.15629        1.98428        0.34729
H         -1.45557        2.56939        0.94449
C         -2.98998       -0.16581       -0.36446
H         -2.93227       -1.25891       -0.32651
C         -3.12526        2.60235       -0.44011
H         -3.18727        3.69329       -0.46966
C         -3.97091        0.43951       -1.15510
C         -4.91436       -0.39276       -1.97446
H         -4.43442       -0.72530       -2.91056
H         -5.22731       -1.29763       -1.43281
H         -5.81682        0.17064       -2.25088
C         -4.02052        1.83858       -1.18618
H         -4.77642        2.33491       -1.80126
C         -2.68110       -0.28167        3.24265
H         -2.20262        0.58885        3.71943
H         -3.51259        0.07711        2.61229
H         -3.08322       -0.94386        4.02219
C          1.07519        0.94729        2.71232
H          1.20927        0.05567        3.34559
H          1.86489        0.96263        1.94538
H          1.17400        1.84459        3.33915
C          3.33450        0.99479       -0.47979
H          3.92093        0.08130       -0.59711
C          1.23656        2.18133       -0.69473
H          0.18591        2.18017       -0.99156
C          3.92285        2.15416        0.01828
H          4.98144        2.15322        0.28904
C          1.81347        3.34608       -0.18047
C          0.98291        4.58041        0.01973
H          0.50505        4.56991        1.01419
H          1.59009        5.49506       -0.04251
H          0.17860        4.64758       -0.72706
C          3.16733        3.31543        0.17380
H          3.63836        4.21785        0.57386
C          2.48918       -2.56413       -2.38175
H          2.19459       -3.06652       -1.44557
H          1.90720       -2.99263       -3.21534
H          3.55774       -2.74107       -2.57092
C         -0.85491       -0.69796       -3.00615
H         -0.36931       -1.17486       -3.87475
H         -1.28682       -1.48515       -2.36325
H         -1.67010       -0.05140       -3.35924
