96
Cat428.ts34.5.log	Energy: -2436011.7622292
C         -0.30768        2.62091       -2.95181
H          0.01337        2.50396       -3.99081
H         -1.35652        2.92207       -2.85408
C          0.63255        3.09236       -1.99440
H          1.67677        3.23461       -2.29263
H          0.31800        3.83562       -1.25202
H          0.30293        2.11033       -0.70624
Co         0.28513        1.09885       -1.78422
C         -1.78134        0.68639        0.87679
C         -3.08423        1.06751       -1.70556
C         -1.82017       -1.49941       -1.11322
C          1.91006       -1.52065       -0.26897
C          3.58026        0.43432       -1.44042
C          2.19575        1.01336        1.05895
P          1.89273        0.28717       -0.62419
P         -1.54472        0.34937       -0.90987
C          0.51637        0.13818       -3.20559
O          0.62807       -0.49768       -4.16690
C         -1.20173       -0.14827        1.84230
H         -0.68849       -1.06333        1.54465
C         -2.39165        1.87086        1.30767
H         -2.79309        2.57348        0.57366
C         -1.27985        0.18000        3.19350
H         -0.83217       -0.48680        3.93456
C         -2.48084        2.21424        2.66019
C         -3.16987        3.47871        3.08573
H         -2.66290        3.94486        3.94361
H         -3.20521        4.21309        2.26796
H         -4.20991        3.27863        3.39372
C         -1.92182        1.34567        3.60478
H         -1.97657        1.59405        4.66812
H         -2.85591        0.99018       -2.77942
H         -3.06613        2.14344       -1.47603
C         -4.41737        0.45907       -1.40782
C         -5.18755        0.85484       -0.30445
H         -4.82773        1.65158        0.34754
C         -4.92433       -0.55810       -2.22990
H         -4.36125       -0.85930       -3.11781
C         -6.39999        0.23288       -0.01575
H         -6.97807        0.55644        0.85327
C         -6.13313       -1.18662       -1.94022
H         -6.49923       -1.98290       -2.59255
C         -6.87410       -0.79851       -0.82557
H         -7.82135       -1.29092       -0.59429
H         -0.85961       -1.87954       -1.48306
H         -2.53125       -1.57803       -1.95079
C         -2.27379       -2.35128        0.03640
C         -3.51363       -2.17904        0.66343
H         -4.19707       -1.40655        0.31253
C         -1.41816       -3.34800        0.52251
H         -0.44700       -3.49480        0.04649
C         -3.87791       -2.97113        1.74895
H         -4.84939       -2.81349        2.22391
C         -1.77917       -4.13914        1.61122
H         -1.08963       -4.90743        1.97129
C         -3.01202       -3.95114        2.23348
H         -3.29896       -4.56671        3.08959
C          1.77235       -2.39847       -1.35617
H          1.60312       -2.00817       -2.36191
C          2.11620       -2.06051        1.00212
H          2.23739       -1.40351        1.86535
C          1.87660       -3.77212       -1.16598
H          1.78314       -4.44569       -2.02120
C          2.19464       -3.44399        1.21448
C          2.36923       -3.98429        2.60315
H          3.12103       -3.41029        3.16532
H          1.42214       -3.92200        3.16483
H          2.68051       -5.03824        2.59150
C          2.08870       -4.29315        0.11094
H          2.16203       -5.37467        0.25307
H          3.73069        1.51153       -1.60876
H          3.43826       -0.01835       -2.43354
C          4.72693       -0.19363       -0.71075
C          5.02636       -1.55254       -0.88769
H          4.44458       -2.14055       -1.60015
C          5.50487        0.53378        0.20078
H          5.31575        1.59985        0.34485
C          6.04621       -2.16489       -0.16536
H          6.25426       -3.22617       -0.32155
C          6.52813       -0.07540        0.92515
H          7.11970        0.51725        1.62723
C          6.79907       -1.43074        0.75033
H          7.59980       -1.91071        1.31790
H          3.19512        0.69884        1.39983
H          1.44999        0.54627        1.71820
C          2.02370        2.50222        1.12405
C          0.87019        3.03587        1.71092
H          0.12928        2.35966        2.13860
C          2.96332        3.39249        0.58974
H          3.87419        3.01021        0.12623
C          0.65276        4.41106        1.74900
H         -0.25961        4.79813        2.20986
C          2.75194        4.76911        0.62931
H          3.49907        5.44295        0.20303
C          1.59219        5.28562        1.20506
H          1.42447        6.36485        1.23226
