84
Cat418.ts34.5.log	Energy: -3490695.7806104
C         -0.45246        0.45911       -3.50515
H         -0.23768       -0.31164       -4.25112
H         -1.46466        0.87143       -3.57179
C          0.60284        1.29789       -3.06640
H          1.62860        1.11787       -3.40666
H          0.39565        2.36519       -2.92305
H          0.34301        1.33480       -1.39217
Co         0.11753       -0.09470       -1.65221
C         -1.43072        1.63509        0.75691
C         -3.21462        0.65023       -1.27401
C         -2.28462       -1.11343        0.64789
C          1.73979       -1.80095        0.75706
C          3.42374       -0.49876       -1.14153
C          2.15830        1.04602        0.87528
P          1.78798       -0.31156       -0.31207
P         -1.63030        0.24011       -0.42163
C          0.10924       -1.74792       -2.18628
O          0.08238       -2.84035       -2.56051
C         -1.18836        1.45030        2.11966
H         -1.23956        0.45134        2.55640
C         -1.35830        2.93476        0.23181
H         -1.51830        3.08976       -0.84014
C         -0.87807        2.54271        2.93082
H         -0.66654        2.38545        3.99112
C         -1.07732        4.03985        1.03533
C         -1.02293        5.42440        0.45873
H         -1.05683        5.40737       -0.63967
H         -1.87116        6.03445        0.80947
H         -0.10463        5.94910        0.76589
C         -0.82918        3.82482        2.39870
H         -0.57030        4.67033        3.04176
C         -3.56646       -0.16081       -2.36137
H         -2.88169       -0.94954       -2.68511
C         -4.10166        1.65450       -0.87309
H         -3.85609        2.29686       -0.02461
C         -4.77213        0.01686       -3.03035
H         -5.04515       -0.61949       -3.87364
C         -5.30818        1.85180       -1.54143
H         -5.99852        2.63717       -1.22909
C         -5.63704        1.03052       -2.61758
Cl        -7.13486        1.27096       -3.45240
C         -3.32154       -0.89115        1.56629
H         -3.75312        0.10737        1.67142
C         -1.77889       -2.40673        0.51011
H         -0.97811       -2.60515       -0.20153
C         -3.81139       -1.92398        2.35656
H         -4.60689       -1.74853        3.08252
C         -2.27319       -3.45795        1.27917
H         -1.86380       -4.46348        1.17319
C         -3.27300       -3.20448        2.21136
Cl        -3.84315       -4.49044        3.22330
C          2.36546       -2.98767        0.36519
H          2.98729       -3.01244       -0.53224
C          0.93729       -1.80205        1.90491
H          0.42007       -0.88587        2.19814
C          2.18786       -4.14517        1.12244
H          2.67331       -5.07306        0.81057
C          0.76230       -2.94904        2.68098
C         -0.09647       -2.92113        3.91123
H         -0.71723       -2.01454        3.94441
H         -0.77283       -3.78809        3.95040
H          0.51853       -2.94308        4.82602
C          1.39935       -4.12694        2.26937
H          1.26764       -5.04223        2.85325
C          3.45836       -0.86786       -2.48907
H          2.51465       -1.01072       -3.02088
C          4.63396       -0.30513       -0.46374
H          4.63168       -0.00449        0.58639
C          4.66918       -1.05927       -3.15062
H          4.69483       -1.35222       -4.20138
C          5.85059       -0.48516       -1.11194
H          6.79451       -0.33322       -0.58596
C          5.86037       -0.86449       -2.45536
Cl         7.37247       -1.08898       -3.26647
C          2.62924        0.83287        2.17696
H          2.78660       -0.18325        2.54344
C          1.99636        2.36482        0.43608
H          1.63762        2.55728       -0.57683
C          2.88652        1.90177        3.03210
H          3.23153        1.73003        4.05294
C          2.26590        3.44164        1.27089
H          2.12556        4.46610        0.92401
C          2.68898        3.20235        2.57597
Cl         2.93847        4.53947        3.64797
