106
Cat496.ts34.5.log	Energy: -2345270.5158687
C          1.22695        2.33279       -2.59463
H          1.04200        3.40995       -2.56901
H          2.28361        2.06241       -2.70051
C          0.25170        1.48334       -3.18045
H         -0.68780        1.91252       -3.54400
H          0.60056        0.64220       -3.79043
H          0.05202        0.25876       -2.08417
Co         0.21649        1.38763       -1.13325
O          2.60954       -0.57124       -1.64528
C          3.27294        1.30303        0.29041
C          1.65791       -1.00015        0.90039
O         -1.42056       -0.85856        0.34143
C         -2.69222        1.53193        0.66757
C         -2.80204        0.10292       -1.83681
P         -1.62557        0.60407       -0.50704
P          1.88072        0.29404       -0.38022
C          0.15985        2.82182       -0.16872
O          0.17260        3.75059        0.52013
C          3.87858       -1.06089       -1.62301
C          4.14633       -2.33409       -1.11619
H          3.31777       -2.94676       -0.75656
C          4.92856       -0.29319       -2.13413
H          4.70617        0.68494       -2.56551
C          5.45796       -2.80070       -1.06598
H          5.65456       -3.79549       -0.65632
C          6.23344       -0.77054       -2.07602
H          7.04590       -0.15186       -2.46792
C          6.52817       -2.02444       -1.52456
C          7.94607       -2.50715       -1.41957
H          8.52539       -2.25911       -2.32161
H          7.99200       -3.59588       -1.27469
H          8.46166       -2.03881       -0.56423
H          3.68628        1.83199       -0.58533
H          2.78245        2.09046        0.88790
C          4.38228        0.63165        1.09352
H          3.99802        0.34717        2.08791
H          4.69778       -0.30698        0.61421
C          5.60927        1.51682        1.25851
H          5.33101        2.45475        1.77315
H          5.96769        1.81688        0.25681
C          6.74440        0.83389        2.00793
H          6.38753        0.52543        3.00673
H          7.00289       -0.10205        1.48077
C          7.98416        1.70141        2.15165
H          8.78721        1.17916        2.69386
H          7.76147        2.63013        2.70144
H          8.38280        1.99254        1.16626
H          0.95851       -1.72483        0.45539
H          2.60873       -1.51673        1.10664
C          1.04914       -0.41717        2.17043
H          1.80328        0.17543        2.71773
H          0.25119        0.28819        1.88498
C          0.45772       -1.47501        3.08941
H          1.25130       -2.16642        3.42704
H         -0.25258       -2.08833        2.50871
C         -0.26111       -0.89289        4.29758
H          0.45111       -0.30471        4.90319
H         -1.01646       -0.16727        3.94486
C         -0.93129       -1.94696        5.16376
H         -1.44482       -1.50007        6.02883
H         -0.19667       -2.67123        5.55116
H         -1.67804       -2.51557        4.58591
C         -2.37935       -1.77984        0.62259
C         -2.57285       -2.86325       -0.23960
H         -1.94439       -2.94783       -1.12840
C         -3.14195       -1.69064        1.78923
H         -2.95802       -0.87007        2.48464
C         -3.55715       -3.80602        0.03585
H         -3.70284       -4.64205       -0.65426
C         -4.12261       -2.64432        2.05404
H         -4.71598       -2.55755        2.96856
C         -4.36292       -3.70876        1.17836
C         -5.44987       -4.71002        1.44294
H         -6.32828       -4.52016        0.80362
H         -5.78854       -4.67068        2.48788
H         -5.11310       -5.73644        1.23296
H         -3.53296        0.89020        0.97633
H         -2.07368        1.70949        1.56386
C         -3.20809        2.85449        0.11384
H         -2.36200        3.47312       -0.22398
H         -3.82447        2.67052       -0.78340
C         -4.02671        3.63856        1.13019
H         -3.40648        3.82383        2.02577
H         -4.87718        3.02185        1.47468
C         -4.54601        4.96483        0.59349
H         -3.69036        5.57210        0.24965
H         -5.15881        4.77616       -0.30608
C         -5.35762        5.75136        1.60992
H         -5.71817        6.70414        1.19348
H         -4.75754        5.98539        2.50397
H         -6.23850        5.18086        1.94640
H         -2.74052        0.90087       -2.59506
H         -2.32687       -0.77527       -2.30723
C         -4.25631       -0.19209       -1.48295
H         -4.32077       -0.78538       -0.55880
H         -4.78619        0.75196       -1.27145
C         -4.98736       -0.94714       -2.58389
H         -4.43448       -1.87870       -2.80381
H         -4.97085       -0.35826       -3.51927
C         -6.42324       -1.29563       -2.21891
H         -6.41773       -1.87922       -1.28086
H         -6.97618       -0.36720       -1.99018
C         -7.15188       -2.07292       -3.30290
H         -8.18483       -2.31276       -3.00818
H         -6.63983       -3.02344       -3.52399
H         -7.19918       -1.50041       -4.24329
