68
Cat408.ts34.5.log	Energy: -1955104.5778637
C         -2.33827       -2.95152        0.36808
H         -3.35210       -3.01645       -0.03742
H         -1.69364       -3.77920        0.05409
C         -2.16382       -2.40623        1.67465
H         -3.02854       -1.99594        2.20724
H         -1.46952       -2.90897        2.35929
H         -0.83324       -1.43419        1.46396
Co        -1.57258       -1.10927        0.22174
C          1.84023       -0.95069       -0.05656
C          0.67640       -3.25514       -1.20734
C          0.44863       -0.71492       -2.55095
C         -0.51471        2.02099       -0.28783
C         -2.88500        1.84601        1.28870
C         -0.34868        1.12561        2.46739
P         -1.33199        0.90942        0.92247
P          0.27047       -1.47381       -0.87517
C         -2.82810       -0.66290       -0.87814
O         -3.66830       -0.34965       -1.61267
C          2.83929       -0.19020       -0.67417
H          2.72781        0.13900       -1.70777
C          2.02727       -1.33289        1.27839
H          1.23795       -1.90520        1.77698
C          3.98267        0.17609        0.03562
H          4.75248        0.77808       -0.45375
C          3.16959       -0.98324        2.00295
C          3.34577       -1.43415        3.42412
H          2.37648       -1.57337        3.92468
H          3.87813       -2.39901        3.46835
H          3.93373       -0.71096        4.00794
C          4.14781       -0.21205        1.36169
H          5.04534        0.08709        1.91031
H         -0.20530       -3.67229       -1.72087
C          1.95431       -3.55029       -1.97173
H          2.83117       -3.10199       -1.47936
H          1.91426       -3.16177       -3.00085
H          0.69299       -3.73370       -0.21384
H          2.12812       -4.63568       -2.04165
H          1.44671       -0.94292       -2.95823
C         -0.62924       -1.15791       -3.52754
H         -1.63568       -0.91446       -3.16111
H         -0.59549       -2.24366       -3.71011
H          0.40276        0.37552       -2.39921
H         -0.49696       -0.65814       -4.49947
C         -1.21892        2.40276       -1.43827
H         -2.25947        2.10042       -1.57671
C          0.83123        2.38762       -0.17238
H          1.40935        2.08034        0.70164
C         -0.58584        3.14108       -2.43431
H         -1.14302        3.43223       -3.32813
C          1.48109        3.12710       -1.16654
C          2.92717        3.50407       -1.02441
H          3.06795        4.59184       -1.12329
H          3.32909        3.19300       -0.05063
H          3.54002        3.02713       -1.80662
C          0.75345        3.50049       -2.30193
H          1.24275        4.07840       -3.09110
H         -3.44077        1.89578        0.33949
C         -3.73261        1.15883        2.34613
H         -3.22585        1.12610        3.32363
H         -3.94584        0.12200        2.04628
H         -2.63461        2.88222        1.56754
H         -4.69102        1.68077        2.48746
H          0.65449        0.73282        2.23554
C         -0.28717        2.51678        3.07584
H         -1.27204        2.84538        3.43995
H          0.06442        3.26658        2.35125
H         -0.78049        0.39954        3.17541
H          0.40127        2.53514        3.93509
