56
Cat407.ts34.5.log	Energy: -1856508.5202541
C          3.92602        0.95609        0.31888
H          4.76054        0.29282        0.07396
H          3.99291        1.93264       -0.17419
C          3.38036        0.89829        1.63939
H          3.74405        0.13232        2.33346
H          3.16992        1.84378        2.15541
H          1.79459        0.97127        1.34935
Co         2.16560        0.02073        0.26279
C         -0.71118        1.56710       -0.71716
C          1.62904        3.01587       -1.31153
C          1.00877        0.74411       -2.86092
C         -0.79045       -1.64567        0.23038
C          1.26392       -2.91394        1.69993
C          0.01168       -0.63015        2.80396
P          0.70291       -1.22979        1.21730
P          1.06209        1.27326       -1.10465
C          2.84648       -1.25956       -0.67813
O          3.27396       -2.09715       -1.35360
C         -1.76194        1.24610       -1.57879
H         -1.56574        0.80591       -2.55731
C         -1.01580        2.10245        0.54264
H         -0.19614        2.33228        1.23203
C         -3.08172        1.46450       -1.18264
H         -3.89818        1.19686       -1.85803
C         -2.32916        2.33613        0.95118
C         -2.63078        2.92091        2.30103
H         -1.72533        2.99413        2.92012
H         -3.05538        3.93393        2.21062
H         -3.36776        2.31114        2.84696
C         -3.36529        2.00832        0.06470
H         -4.40415        2.17861        0.36240
H          1.64018        3.51627       -0.33238
H          2.65606        3.01362       -1.70564
H          0.97615        3.57756       -1.99625
H          0.47698        1.45536       -3.51156
H          2.04881        0.64482       -3.20434
H          0.53683       -0.24590       -2.93246
C         -0.58772       -2.17017       -1.05529
H          0.42832       -2.32820       -1.42716
C         -2.09566       -1.44118        0.67724
H         -2.27639       -1.01644        1.66719
C         -1.67629       -2.48841       -1.85826
H         -1.51316       -2.90240       -2.85656
C         -3.20347       -1.74994       -0.12435
C         -4.59298       -1.51380        0.38999
H         -4.80696       -2.14809        1.26522
H         -4.71919       -0.46683        0.70685
H         -5.35060       -1.73216       -0.37568
C         -2.97638       -2.27580       -1.39734
H         -3.82802       -2.52034       -2.03816
H          1.62100       -3.44172        0.80425
H          2.11186       -2.81494        2.39403
H          0.45882       -3.49727        2.17210
H         -0.65567       -1.36655        3.27602
H          0.85588       -0.42375        3.47743
H         -0.53284        0.30937        2.63654
