84
Cat485.ts34.5.log	Energy: -3724515.5981710
C         -0.66074        2.03519       -3.58410
H         -0.58592        1.59744       -4.58251
H         -1.63789        2.47950       -3.36836
C          0.49725        2.58508       -2.97987
H          1.47047        2.47991       -3.46876
H          0.39959        3.50975       -2.39930
H          0.40500        1.97802       -1.43220
Co         0.02848        0.75804       -2.18029
O         -2.43514        1.94438       -0.45793
O         -3.06535        0.06188       -1.93662
O         -1.71482       -0.42786        0.21422
O          1.75326       -1.56222       -0.86733
O          3.08257        0.54506       -1.41694
O          1.51604        0.51795        0.58832
P          1.55649        0.06444       -0.99615
P         -1.73923        0.57222       -1.11740
C          0.08614       -0.55353       -3.34400
O          0.10521       -1.41692       -4.09860
C         -1.66130        2.90080        0.14510
C         -1.73048        4.20618       -0.34277
H         -2.38053        4.41815       -1.19400
C         -0.83631        2.58953        1.22746
H         -0.77719        1.56135        1.58633
C         -0.97099        5.20642        0.25986
H         -1.02734        6.22889       -0.12116
C         -0.07809        3.59810        1.81937
H          0.57192        3.35243        2.66200
C         -0.14088        4.90605        1.34052
H          0.45490        5.69162        1.81029
C         -4.37910       -0.00168       -1.53327
C         -5.12720        1.15366       -1.31336
H         -4.66440        2.12886       -1.45642
C         -4.96200       -1.25880       -1.38170
H         -4.36301       -2.14789       -1.58158
C         -6.44402        1.04728       -0.87474
H         -7.03732        1.94220       -0.68068
C         -6.27453       -1.36818       -0.93901
H         -6.72981       -2.34676       -0.78077
C         -7.00617       -0.21140       -0.67139
Cl        -8.62783       -0.34211       -0.07642
C         -2.77886       -0.92634        0.92334
C         -2.90212       -2.31247        1.01329
H         -2.16071       -2.94527        0.52183
C         -3.70612       -0.09273        1.55058
H         -3.59727        0.98925        1.48168
C         -3.98149       -2.87235        1.68930
H         -4.09854       -3.95532        1.75246
C         -4.79541       -0.65081        2.21059
H         -5.54983       -0.01176        2.67149
C         -4.93566       -2.03698        2.26733
Cl        -6.31893       -2.72642        3.04792
C          1.95433       -2.28375        0.28606
C          0.92241       -2.39025        1.21848
H         -0.01458       -1.86467        1.03093
C          3.17636       -2.92039        0.49086
H          3.96644       -2.82222       -0.25438
C          1.12564       -3.13572        2.37733
H          0.31992       -3.21470        3.11113
C          3.36581       -3.66526        1.65392
H          4.32399       -4.16341        1.81886
C          2.34758       -3.77224        2.60127
H          2.50436       -4.35476        3.51173
C          4.20873       -0.23779       -1.44517
C          4.35747       -1.20128       -2.44358
H          3.56267       -1.34165       -3.17803
C          5.21227       -0.04193       -0.49796
H          5.08714        0.72068        0.27091
C          5.50318       -1.98952       -2.48135
H          5.62753       -2.75259       -3.25110
C          6.36128       -0.82653       -0.53587
H          7.15108       -0.68614        0.20352
C          6.49877       -1.80271       -1.52181
Cl         7.92071       -2.79115       -1.55879
C          2.54622        0.99476        1.35281
C          3.02971        2.28558        1.13502
H          2.59773        2.89217        0.33813
C          3.07288        0.20366        2.37259
H          2.68124       -0.80163        2.53198
C          4.06102        2.78172        1.92617
H          4.45433        3.78606        1.76205
C          4.10177        0.70006        3.16801
H          4.52754        0.08941        3.96551
C          4.59678        1.98333        2.93758
Cl         5.88673        2.59495        3.91832
