84
Cat417.ts34.5.log	Energy: -2586385.8617162
C          0.45022        0.30134        3.48661
H          0.12055       -0.45569        4.20413
H          1.49823        0.59715        3.60013
C         -0.48695        1.26540        3.03505
H         -1.53487        1.19638        3.34934
H         -0.15164        2.30408        2.92951
H         -0.22535        1.31061        1.37670
Co        -0.10992       -0.14490        1.60361
C          1.51896        1.22069       -1.05160
C          3.13652        0.78114        1.26717
C          2.45352       -1.39615       -0.35383
C         -1.75340       -1.58521       -0.95411
C         -3.43507       -0.50115        1.08571
C         -2.19127        1.27099       -0.70769
P         -1.80332       -0.23181        0.28015
P          1.66576        0.09041        0.39797
C         -0.17016       -1.81269        2.07710
O         -0.18058       -2.91908        2.40635
C          1.82778        0.83567       -2.35930
H          2.21634       -0.16419       -2.56004
C          1.02796        2.51638       -0.83171
H          0.76341        2.82127        0.18532
C          1.63026        1.72626       -3.41581
H          1.85689        1.40992       -4.43727
C          0.87307        3.43579       -1.87075
C          0.43210        4.84542       -1.60475
H          0.10478        4.97327       -0.56399
H          1.25817        5.55229       -1.78678
H         -0.39972        5.14158       -2.26062
C          1.16351        3.01318       -3.17589
H          1.02460        3.70754       -4.00924
C          3.63930        0.03147        2.34219
H          3.16109       -0.91605        2.60636
C          3.76295        1.98819        0.94266
H          3.40134        2.58317        0.10172
C          4.73999        0.46693        3.07022
H          5.14203       -0.11209        3.90359
C          4.86176        2.44336        1.67170
H          5.35951        3.38341        1.42641
C          5.33609        1.67636        2.72636
F          6.38628        2.10427        3.42435
C          3.77662       -1.36577       -0.82156
H          4.36485       -0.44989       -0.72488
C          1.72832       -2.58501       -0.47377
H          0.70374       -2.63503       -0.10760
C          4.35645       -2.48642       -1.40546
H          5.38497       -2.47651       -1.77080
C          2.29406       -3.71704       -1.05714
H          1.73123       -4.64700       -1.15388
C          3.60184       -3.65087       -1.51722
F          4.15236       -4.72668       -2.07499
C         -2.47601       -2.76891       -0.77167
H         -3.18084       -2.86117        0.05708
C         -0.84301       -1.50125       -2.01483
H         -0.24342       -0.59659       -2.13798
C         -2.28942       -3.83472       -1.65063
H         -2.85407       -4.75886       -1.50510
C         -0.65596       -2.55685       -2.91062
C          0.36044       -2.44583       -4.00845
H          0.40706       -1.42389       -4.41214
H          1.36498       -2.69235       -3.62400
H          0.14359       -3.13650       -4.83565
C         -1.39453       -3.72953       -2.71284
H         -1.26151       -4.57170       -3.39756
C         -3.48027       -0.87259        2.43169
H         -2.54012       -0.98464        2.97731
C         -4.63764       -0.34521        0.38199
H         -4.61818       -0.04471       -0.66874
C         -4.69752       -1.10080        3.07100
H         -4.74921       -1.39360        4.12115
C         -5.85955       -0.56707        1.00569
H         -6.80609       -0.45122        0.47451
C         -5.87121       -0.94386        2.34631
F         -7.03947       -1.15401        2.94654
C         -2.34233        1.30221       -2.09610
H         -2.24921        0.38594       -2.68020
C         -2.35199        2.46506        0.01138
H         -2.25049        2.45840        1.09937
C         -2.60681        2.49931       -2.76093
H         -2.70318        2.53826       -3.84728
C         -2.64080        3.66021       -0.63382
H         -2.76936        4.59381       -0.08339
C         -2.74655        3.66203       -2.02034
F         -2.97051        4.81619       -2.65121
