80
Cat410.ts34.5.log	Energy: -2053693.3059116
C          0.85344       -3.53201        0.71239
H          0.30963       -4.40380        0.33683
H          1.93121       -3.58558        0.52600
C          0.39694       -2.91129        1.90904
H         -0.51782       -3.27051        2.39260
H          1.14537       -2.59932        2.64898
H          0.50205       -1.28064        1.52460
Co        -0.06238       -1.79955        0.26935
C          1.85519        0.93239        0.36218
C          3.22757       -1.41024       -0.58313
C          1.29202        0.10019       -2.35405
C         -1.87476        0.79440       -0.77423
C         -3.34521       -1.11367        0.77792
C         -1.38822        0.82848        2.08385
P         -1.63717       -0.34710        0.65281
P          1.53700       -0.59008       -0.63057
C         -0.98682       -2.65672       -0.91246
O         -1.61153       -3.25329       -1.68570
C          1.62859        2.23710       -0.08379
H          1.31957        2.42644       -1.11112
C          2.24557        0.75400        1.70033
H          2.41419       -0.26035        2.07495
C          1.76389        3.31798        0.79109
H          1.56734        4.33049        0.42865
C          2.39487        1.81981        2.58620
C          2.80644        1.59113        4.01154
H          2.84610        0.51943        4.25150
H          3.80236        2.01815        4.21234
H          2.10316        2.06897        4.71133
C          2.13732        3.11599        2.11371
H          2.23293        3.96848        2.79195
H          3.19316       -1.88782        0.41281
C          3.30301       -2.52870       -1.61791
H          4.14563       -3.20247       -1.39396
H          2.38088       -3.12781       -1.63764
H          3.46865       -2.12524       -2.62832
C          4.46308       -0.51920       -0.61849
H          4.41022        0.29433        0.11874
H          5.35872       -1.12062       -0.38937
H          4.61914       -0.06787       -1.60730
H          0.48547        0.83255       -2.17333
C          2.48008        0.82361       -2.98130
H          2.14699        1.38844       -3.86775
H          2.96962        1.53034       -2.29727
H          3.24202        0.10820       -3.32504
C          0.72260       -0.93128       -3.32198
H         -0.15670       -1.44058       -2.91187
H          0.41634       -0.42973       -4.25408
H          1.46282       -1.70002       -3.58728
C         -2.34051        0.25643       -1.98444
H         -2.62749       -0.79510       -2.04836
C         -1.50149        2.14242       -0.75162
H         -1.13375        2.59306        0.17031
C         -2.41864        1.04838       -3.12462
H         -2.78369        0.61432       -4.05858
C         -1.55665        2.94844       -1.89585
C         -1.08679        4.37357       -1.84200
H         -1.20521        4.79906       -0.83502
H         -0.01690        4.44593       -2.10320
H         -1.63633        5.00921       -2.55134
C         -2.02185        2.38444       -3.08660
H         -2.07800        2.99685       -3.99076
H         -3.34393       -1.73342       -0.13551
C         -3.41966       -2.07548        1.95684
H         -4.31885       -2.70696        1.88047
H         -2.53845       -2.73205        1.97772
H         -3.47596       -1.53903        2.91673
C         -4.55296       -0.18817        0.70393
H         -4.45587        0.55767       -0.09838
H         -5.45919       -0.78150        0.49909
H         -4.72334        0.34596        1.64819
H         -0.51551        1.40506        1.72874
C         -2.53444        1.79360        2.37389
H         -2.17035        2.62263        3.00248
H         -2.97793        2.22812        1.46795
H         -3.33742        1.29300        2.93447
C         -0.94699        0.13286        3.36715
H         -0.06873       -0.50435        3.20765
H         -0.68122        0.89131        4.12093
H         -1.74588       -0.49198        3.79334
