64
Cat466.ts34.5.log	Energy: -2000166.8121303
C          0.51960       -3.88084       -0.80117
H          1.17605       -4.58408       -0.28086
H         -0.52511       -4.20869       -0.83528
C          1.04323       -3.15691       -1.91370
H          2.10478       -3.25139       -2.16577
H          0.41927       -3.05329       -2.80979
H          0.41845       -1.65744       -1.63854
Co         0.85179       -1.98262       -0.26204
O         -1.48281        0.11027       -0.50838
C         -2.54285       -2.39435        0.06552
C         -1.30172       -0.75026        2.08270
O          1.33670        0.92870        0.80123
C          3.66581       -0.06654       -0.14891
C          1.60035        0.79667       -1.98788
P          1.84912       -0.12827       -0.41573
P         -1.07420       -1.30821        0.34583
C          1.78121       -2.51360        1.10384
O          2.38519       -2.86805        2.02298
C         -2.70237        0.70786       -0.56447
C         -3.11263        1.60797        0.42475
H         -2.44962        1.81713        1.26557
C         -3.52631        0.46538       -1.66818
H         -3.17519       -0.22034       -2.44184
C         -4.35574        2.22967        0.32170
H         -4.67226        2.92825        1.10014
C         -4.76628        1.09118       -1.76219
H         -5.40714        0.89166       -2.62453
C         -5.19031        1.96984       -0.76463
H         -6.16418        2.45834       -0.83934
H         -2.18091       -3.39286        0.36313
C         -3.86904       -2.09255        0.74939
H         -4.27524       -1.11159        0.46856
H         -3.77435       -2.11483        1.84508
H         -2.65799       -2.44815       -1.03072
H         -4.61832       -2.85138        0.47404
H         -2.30386       -0.31073        2.20706
C         -1.06776       -1.86507        3.09262
H         -0.05532       -2.28324        3.00524
H         -1.78208       -2.69418        2.96788
H         -0.56033        0.05420        2.21108
H         -1.18357       -1.48570        4.11928
C          1.39367        2.28837        0.76625
C          0.33002        3.00681        0.21353
H         -0.51377        2.45325       -0.19962
C          2.48231        2.96281        1.32452
H          3.28983        2.38385        1.77657
C          0.37345        4.39841        0.19512
H         -0.45851        4.95539       -0.24279
C          2.51591        4.35589        1.30090
H          3.36996        4.88133        1.73534
C          1.46751        5.07852        0.73142
H          1.49912        6.17009        0.71387
H          3.81383       -0.40170        0.89067
C          4.41599       -0.97053       -1.11497
H          4.30887       -0.63502       -2.15868
H          4.03064       -1.99968       -1.05554
H          4.01673        0.97634       -0.20970
H          5.49133       -0.99316       -0.88318
H          0.53100        1.06462       -1.98081
C          2.49339        1.97980       -2.32879
H          3.54971        1.68268       -2.41134
H          2.42735        2.78616       -1.58604
H          1.69223        0.00963       -2.75503
H          2.19918        2.40369       -3.30148
