52
Cat465.ts34.5.log	Energy: -1901574.2138801
C         -4.05268        1.01094       -0.21588
H         -4.81391        0.58445        0.44353
H         -3.99576        2.10379       -0.16116
C         -3.80853        0.37903       -1.47304
H         -4.31003       -0.56692       -1.70308
H         -3.69668        1.00972       -2.36325
H         -2.17203        0.45462       -1.54026
Co        -2.32154        0.01584       -0.13293
O          0.38505        1.60213       -0.54749
C         -1.48069        3.31174        0.45529
C         -0.24891        1.40515        2.12471
O          0.38315       -1.47284        0.37066
C         -1.39913       -3.19545       -0.76287
C         -0.09136       -1.22326       -2.32569
P         -0.91470       -1.43491       -0.71416
P         -0.98470        1.54921        0.45824
C         -2.85031       -0.86854        1.26846
O         -3.18040       -1.43291        2.21958
C          1.51479        2.31754       -0.29283
C          2.53682        1.76318        0.48456
H          2.39631        0.76753        0.90802
C          1.68068        3.58392       -0.86082
H          0.88090        3.99123       -1.48234
C          3.71244        2.47971        0.69583
H          4.50775        2.03946        1.30233
C          2.86033        4.29321       -0.64363
H          2.98520        5.28154       -1.09291
C          3.87857        3.74698        0.13709
H          4.80217        4.30523        0.30486
H         -2.29670        3.43863        1.18243
H         -0.64960        3.97969        0.72738
H         -1.86060        3.58407       -0.54016
H          0.20468        0.40814        2.21268
H          0.49330        2.18439        2.35286
H         -1.07961        1.46765        2.84408
C          1.48517       -2.26527        0.24165
C          2.58554       -1.82435       -0.49976
H          2.53694       -0.85281       -0.99426
C          1.53666       -3.49377        0.90566
H          0.67522       -3.80901        1.49756
C          3.72709       -2.61904       -0.58110
H          4.58560       -2.26799       -1.15886
C          2.68249       -4.28127        0.81763
H          2.71868       -5.23972        1.34123
C          3.77959       -3.85007        0.07211
H          4.67673       -4.46941        0.00631
H         -0.56196       -3.86107       -1.02235
H         -1.81219       -3.47935        0.21573
H         -2.19683       -3.30220       -1.51309
H          0.35028       -0.21725       -2.34662
H          0.67761       -1.98605       -2.51504
H         -0.86677       -1.28362       -3.10387
