92
Cat478.ts34.5.log	Energy: -2481075.0898808
C          1.69795       -2.45344       -1.79173
H          2.66779       -2.05034       -2.10014
H          1.76349       -3.44958       -1.34609
C          0.53764       -2.11224       -2.53730
H          0.65889       -1.55350       -3.47382
H         -0.31069       -2.80399       -2.57928
H          0.13153       -0.60381       -1.99584
Co         0.53449       -1.21810       -0.69816
O         -1.79592        0.90488       -0.88992
C         -2.63963       -1.63782       -1.29302
C         -2.08217       -0.56303        1.41887
O          2.63657        0.17288        1.29311
C          3.15805        0.98621       -1.27361
C          1.09101        2.04990        0.38029
P          1.79931        0.43436       -0.15246
P         -1.46009       -0.63896       -0.30541
C          0.67534       -2.38848        0.57869
O          0.77606       -3.20061        1.38948
C         -2.72399        1.80399       -0.44910
C         -3.76058        2.18383       -1.30630
H         -3.83241        1.72743       -2.29414
C         -2.60750        2.39590        0.81015
H         -1.77144        2.12769        1.45520
C         -4.68996        3.13571       -0.89248
H         -5.49765        3.42707       -1.56832
C         -3.54733        3.33827        1.21729
H         -3.44758        3.79454        2.20498
C         -4.59465        3.70903        0.37482
H         -5.32777        4.45061        0.69983
C         -3.06672       -1.10642       -2.51642
H         -2.74973       -0.09938       -2.79018
C         -2.98159       -2.96593       -0.95528
C         -2.47697       -3.65246        0.27950
H         -2.52035       -3.01399        1.17257
H         -1.42317       -3.94701        0.15934
H         -3.05508       -4.56473        0.48097
C         -3.86976       -1.83971       -3.38435
H         -4.19483       -1.39966       -4.33005
C         -3.80193       -3.67949       -1.83760
H         -4.08720       -4.70116       -1.57159
C         -4.25173       -3.13193       -3.03594
H         -4.88915       -3.72039       -3.70005
C         -1.06723       -0.43291        2.37774
H         -0.02802       -0.44864        2.04464
C         -3.43706       -0.52323        1.82563
C         -4.60303       -0.64974        0.89034
H         -4.75362       -1.69364        0.57443
H         -4.47302       -0.05833       -0.02417
H         -5.52284       -0.30947        1.38511
C         -1.35581       -0.26804        3.72722
H         -0.54445       -0.16554        4.45113
C         -3.70120       -0.36308        3.19163
H         -4.74386       -0.32707        3.51809
C         -2.68565       -0.23528        4.13492
H         -2.93804       -0.10637        5.19035
C          3.27747       -0.98399        1.60228
C          3.19509       -1.42877        2.92394
H          2.60576       -0.84870        3.63688
C          4.02005       -1.70561        0.66495
H          4.09609       -1.34445       -0.36121
C          3.84134       -2.60063        3.30200
H          3.76508       -2.94801        4.33510
C          4.65596       -2.88317        1.05348
H          5.22774       -3.44921        0.31410
C          4.56934       -3.33794        2.36758
H          5.06710       -4.26365        2.66390
C          3.03983        0.56396       -2.60344
H          2.16800       -0.02903       -2.88343
C          4.26519        1.77821       -0.89055
C          4.48186        2.28290        0.50529
H          4.76084        1.46501        1.18590
H          3.57245        2.73931        0.91906
H          5.28623        3.03113        0.51925
C          3.98420        0.90359       -3.56684
H          3.86248        0.56596       -4.59847
C          5.20860        2.10091       -1.87471
H          6.06841        2.71348       -1.58974
C          5.08094        1.67460       -3.19411
H          5.83952        1.95069       -3.93067
C          1.06104        2.37505        1.74389
H          1.48159        1.67306        2.46354
C          0.55002        2.95312       -0.56040
C          0.51829        2.67019       -2.03208
H          0.27633        1.61603       -2.22583
H          1.48993        2.88598       -2.50344
H         -0.24648        3.28735       -2.52388
C          0.53668        3.58728        2.18522
H          0.53154        3.81964        3.25281
C          0.03118        4.16563       -0.09206
H         -0.39472        4.86405       -0.81721
C          0.02840        4.49377        1.25974
H         -0.38784        5.44888        1.58846
