110
Cat462.ts34.5.log	Energy: -2862723.1988605
C         -0.19357       -2.15813       -2.75095
H          0.19596       -3.17973       -2.75050
H         -1.24216       -2.07881       -3.05616
C          0.69821       -1.09103       -3.02131
H          1.76426       -1.29986       -3.14910
H          0.34137       -0.24874       -3.62621
H          0.31563        0.03497       -1.81650
Co         0.26567       -1.20558       -1.02634
C         -2.56016        0.26393       -1.99652
O         -2.84780       -1.40241        0.04779
O         -1.68599        0.80793        0.52493
C          1.30739        0.48612        1.73030
O          3.15427       -0.83744        0.44418
O          2.22351        1.19359       -0.80388
P          1.69081       -0.12730        0.04878
P         -1.62826       -0.44545       -0.57995
C          0.51174       -2.76136       -0.27605
O          0.65179       -3.81453        0.16822
C         -2.14027        1.53232       -2.45165
O         -1.10112        2.06155       -1.78736
C         -0.62978        3.34386       -2.08432
H          0.21453        3.51242       -1.40528
H         -0.27655        3.41673       -3.12781
H         -1.40544        4.10790       -1.90509
C         -3.54935       -0.40970       -2.74024
O         -3.82950       -1.67514       -2.38537
C         -4.84579       -2.37417       -3.04336
H         -4.90776       -3.35693       -2.55915
H         -4.62204       -2.51706       -4.11527
H         -5.82172       -1.86732       -2.94659
C         -4.18412        0.22539       -3.81798
H         -4.96808       -0.28298       -4.37723
C         -2.76902        2.17031       -3.52550
H         -2.45858        3.16470       -3.84328
C         -3.79745        1.50886       -4.18561
H         -4.29976        1.99857       -5.02334
C         -2.65490       -2.17789        1.15297
C         -2.57798       -1.59683        2.42096
H         -2.60329       -0.50938        2.50745
C         -2.60339       -3.56307        1.00395
H         -2.64392       -3.98606       -0.00079
C         -2.48488       -2.39699        3.56346
C         -2.46584       -1.76902        4.92767
H         -2.06608       -0.74591        4.88991
H         -3.48430       -1.71199        5.34694
H         -1.85771       -2.35356        5.63469
C         -2.49404       -4.36244        2.13819
H         -2.44615       -5.44867        2.02987
C         -2.44331       -3.78869        3.40734
H         -2.36657       -4.42843        4.29092
C         -2.68371        1.72368        0.67325
C         -4.03445        1.40449        0.53212
H         -4.31867        0.37925        0.29097
C         -2.29781        3.02885        0.99158
H         -1.23278        3.23817        1.07952
C         -5.01630        2.39040        0.69130
C         -6.46228        2.03175        0.50292
H         -6.65563        1.71851       -0.53588
H         -6.75293        1.19092        1.15203
H         -7.12301        2.88057        0.72845
C         -3.27168        4.00476        1.16316
H         -2.97492        5.02688        1.41306
C         -4.62382        3.69274        1.01051
H         -5.38234        4.46897        1.14038
C          1.02398        1.81791        2.08190
O          1.10850        2.75782        1.11773
C          1.36536        4.08889        1.48264
H          1.66716        4.60971        0.56453
H          0.47114        4.58346        1.90115
H          2.19032        4.15048        2.21104
C          1.13790       -0.51311        2.71512
O          1.36231       -1.77211        2.31328
C          1.16774       -2.84429        3.19789
H          1.35187       -3.75391        2.61451
H          0.13178       -2.87293        3.56992
H          1.87219       -2.79700        4.04597
C          0.76293       -0.18602        4.02198
H          0.64693       -0.96201        4.77664
C          0.65475        2.14872        3.39169
H          0.44270        3.18329        3.65825
C          0.53008        1.14599        4.34427
H          0.23400        1.40786        5.36301
C          3.72406       -1.75256       -0.39572
C          4.08779       -1.40264       -1.69478
H          3.90523       -0.38212       -2.03880
C          3.95416       -3.04080        0.08475
H          3.64865       -3.28408        1.10274
C          4.67690       -2.34419       -2.54604
C          5.03575       -1.96230       -3.95324
H          4.13179       -1.74307       -4.54499
H          5.66204       -1.05695       -3.97461
H          5.58252       -2.76757       -4.46325
C          4.55111       -3.97601       -0.75352
H          4.73365       -4.98967       -0.38858
C          4.90560       -3.63497       -2.05896
H          5.36698       -4.38164       -2.71042
C          3.20263        2.09448       -0.52181
C          4.04920        2.01710        0.58413
H          3.96153        1.17845        1.27482
C          3.32868        3.15093       -1.43012
H          2.66359        3.17776       -2.29498
C          5.00955        3.01071        0.81060
C          5.91260        2.90633        2.00601
H          5.33675        2.72533        2.92675
H          6.61376        2.06326        1.89573
H          6.50626        3.82054        2.14590
C          4.28554        4.13434       -1.20860
H          4.38277        4.96154       -1.91635
C          5.11862        4.07352       -0.09116
H          5.86591        4.85273        0.07828
