98
Cat452.ts34.5.log	Energy: -2764103.6896345
C         -1.06614       -0.65615       -3.41986
H         -0.92304       -1.59446       -3.96233
H         -2.10235       -0.29984       -3.41394
C         -0.00882        0.29113       -3.39342
H          0.95802        0.03550       -3.83943
H         -0.25209        1.35641       -3.48675
H         -0.06202        0.75699       -1.77494
Co        -0.16758       -0.69804       -1.61894
C         -2.97145        1.06801       -0.99468
O         -2.72998       -1.55275       -0.09395
O         -1.60055        0.19488        1.22499
C          2.05530       -0.94499        1.07559
O          3.03396       -0.72640       -1.45853
O          1.85793        1.28068       -0.42902
P          1.63596       -0.36049       -0.61382
P         -1.79391       -0.22439       -0.40152
C         -0.15441       -2.44193       -1.65263
O         -0.21429       -3.59166       -1.65644
C         -2.45653        2.38055       -1.06201
O         -1.17745        2.50659       -0.67525
C         -0.58580        3.77309       -0.55777
H          0.43917        3.59741       -0.21453
H         -0.55620        4.29479       -1.52914
H         -1.11971        4.39133        0.18275
C         -4.26076        0.84058       -1.51666
O         -4.67332       -0.43324       -1.59361
C         -6.01769       -0.72080       -1.86292
H         -6.12701       -1.80630       -1.74855
H         -6.30061       -0.43384       -2.89031
H         -6.68817       -0.21912       -1.14474
C         -5.05424        1.91424       -1.94730
H         -6.06329        1.74095       -2.31851
C         -3.23752        3.45469       -1.49843
H         -2.83680        4.46716       -1.51158
C         -4.53825        3.20426       -1.92158
H         -5.16161        4.03565       -2.25945
C         -3.85794       -1.76880        0.62764
C         -4.45312       -3.02207        0.44735
H         -3.98694       -3.71713       -0.25407
C         -4.42722       -0.85066        1.51228
H         -3.95714        0.11598        1.67136
C         -5.61575       -3.34947        1.13766
H         -6.07186       -4.33126        0.98700
C         -5.59573       -1.18901        2.19351
H         -6.03470       -0.46309        2.88265
C         -6.19870       -2.43248        2.01344
H         -7.11198       -2.68787        2.55501
C         -1.37816        1.36738        1.87097
C         -0.11687        1.60369        2.42414
H          0.67017        0.86588        2.27037
C         -2.40694        2.29616        2.06548
H         -3.38998        2.11610        1.62835
C          0.11353        2.76622        3.15449
H          1.10152        2.93502        3.59114
C         -2.16228        3.46008        2.79162
H         -2.97137        4.18103        2.93375
C         -0.90300        3.70397        3.33916
H         -0.71810        4.61424        3.91376
C          3.19904       -0.44678        1.74016
O          4.05194        0.24954        0.98032
C          5.21472        0.80211        1.53185
H          5.70268        1.35620        0.72040
H          4.98170        1.50534        2.34862
H          5.89285        0.01474        1.90175
C          1.17927       -1.78107        1.80288
O          0.19004       -2.36074        1.12099
C         -0.78613       -3.11944        1.78806
H         -1.46477       -3.48528        1.01069
H         -1.35635       -2.49756        2.49671
H         -0.33665       -3.97697        2.31612
C          1.37389       -1.99701        3.17534
H          0.67465       -2.60821        3.74277
C          3.40814       -0.67879        3.10289
H          4.28700       -0.28218        3.60885
C          2.47652       -1.43703        3.80499
H          2.62571       -1.61103        4.87340
C          3.89459       -1.74534       -1.19679
C          3.44914       -3.01687       -0.82690
H          2.38048       -3.21929       -0.73632
C          5.26132       -1.49212       -1.33710
H          5.57949       -0.48739       -1.62070
C          4.38034       -4.02587       -0.58638
H          4.02648       -5.01801       -0.29621
C          6.17985       -2.51081       -1.10372
H          7.24798       -2.30822       -1.21643
C          5.74530       -3.78106       -0.72137
H          6.46879       -4.57762       -0.53463
C          2.89559        2.14136       -0.55375
C          3.03521        3.12052        0.43567
H          2.35122        3.10109        1.28650
C          3.74885        2.14048       -1.66088
H          3.62187        1.38118       -2.43125
C          4.03583        4.08215        0.32702
H          4.13641        4.84325        1.10511
C          4.75340        3.10252       -1.75093
H          5.42029        3.09501       -2.61704
C          4.90701        4.07540       -0.76282
H          5.69378        4.82816       -0.84659
