110
Cat453.ts34.5.log	Energy: -2862709.5948631
C         -0.99096       -0.92404       -3.52834
H         -0.86547       -1.90708       -3.99002
H         -2.00825       -0.52408       -3.60531
C          0.10720       -0.02338       -3.51819
H          1.08215       -0.35441       -3.89100
H         -0.08094        1.04046       -3.70689
H         -0.01209        0.57110       -1.94663
Co        -0.18559       -0.86207       -1.68525
C         -2.94788        1.04466       -1.34740
O         -2.85896       -1.51061       -0.25278
O         -1.74159        0.28611        1.00421
C          1.87027       -0.98140        1.14620
O          2.99872       -0.99093       -1.33561
O          1.84517        1.13123       -0.53553
P          1.57251       -0.51013       -0.60493
P         -1.85570       -0.24282       -0.59737
C         -0.23417       -2.60303       -1.59134
O         -0.33501       -3.74764       -1.51593
C         -2.38016        2.33046       -1.47667
O         -1.11815        2.43881       -1.03321
C         -0.48609        3.68915       -0.96969
H          0.51389        3.50255       -0.56410
H         -0.39007        4.14270       -1.97063
H         -1.03203        4.37364       -0.29945
C         -4.21653        0.82666       -1.92118
O         -4.67322       -0.43443       -1.93531
C         -6.01587       -0.69095       -2.24073
H         -6.17265       -1.76083       -2.05579
H         -6.24672       -0.46751       -3.29661
H         -6.69376       -0.11534       -1.58785
C         -4.94595        1.89474       -2.46449
H         -5.94072        1.73085       -2.87639
C         -3.09666        3.39834       -2.02521
H         -2.65720        4.39288       -2.08541
C         -4.38319        3.16481       -2.49844
H         -4.95649        3.99201       -2.92398
C         -4.03153       -1.62805        0.42102
C         -4.67060       -2.86646        0.30801
H         -4.20165       -3.63468       -0.31044
C         -4.61672       -0.62564        1.19423
H         -4.12557        0.33755        1.30286
C         -5.88149       -3.09215        0.95217
H         -6.36726       -4.06674        0.84663
C         -5.83419       -0.86804        1.82823
H         -6.28114       -0.06868        2.42648
C         -6.49270       -2.09706        1.72613
C         -7.78642       -2.35494        2.44367
H         -8.45955       -2.99013        1.84829
H         -8.31570       -1.41779        2.66939
H         -7.61633       -2.87340        3.40247
C         -1.50161        1.49524        1.57377
C         -0.26106        1.73183        2.17067
H          0.50594        0.95984        2.11458
C         -2.49304        2.47756        1.64661
H         -3.46215        2.30855        1.17513
C         -0.01865        2.93922        2.81621
H          0.95760        3.10236        3.28317
C         -2.23055        3.68543        2.28996
H         -3.01548        4.44634        2.32854
C         -0.99241        3.94388        2.88722
C         -0.72334        5.23411        3.60678
H          0.29318        5.60477        3.40456
H         -0.81019        5.10883        4.69921
H         -1.43519        6.01770        3.30961
C          2.99220       -0.47623        1.84161
O          3.91599        0.12854        1.08649
C          5.06218        0.68553        1.66658
H          5.61673        1.16062        0.84774
H          4.80593        1.45646        2.41223
H          5.68886       -0.09138        2.13621
C          0.92101       -1.72863        1.87834
O         -0.04911       -2.32365        1.18255
C         -1.09031       -2.99604        1.84351
H         -1.73662       -3.39646        1.05574
H         -1.67643       -2.30318        2.46841
H         -0.70492       -3.82571        2.45956
C          1.02616       -1.84628        3.27251
H          0.27063       -2.38707        3.83925
C          3.11194       -0.61081        3.22811
H          3.97509       -0.20833        3.75600
C          2.11116       -1.27945        3.92598
H          2.19009       -1.37645        5.01154
C          3.80144       -2.01557       -0.93945
C          3.29013       -3.24063       -0.50988
H          2.21181       -3.40646       -0.47853
C          5.18327       -1.82187       -0.99168
H          5.56371       -0.85267       -1.31905
C          4.16562       -4.25444       -0.12532
H          3.75121       -5.20767        0.21433
C          6.04138       -2.84791       -0.61391
H          7.12196       -2.68232       -0.65756
C          5.55206       -4.08368       -0.16904
C          6.48845       -5.19300        0.21549
H          6.85884       -5.73004       -0.67406
H          5.99287       -5.93226        0.86112
H          7.36973       -4.81009        0.75215
C          2.92570        1.94273       -0.63777
C          3.03936        2.98324        0.28784
H          2.29927        3.05242        1.08757
C          3.86143        1.83389       -1.66889
H          3.76677        1.02557       -2.39278
C          4.08769        3.89317        0.19050
H          4.16298        4.69969        0.92593
C          4.91010        2.74758       -1.74293
H          5.64041        2.64635       -2.55137
C          5.04889        3.79374       -0.82237
C          6.16360        4.79302       -0.94219
H          6.41281        5.23881        0.03199
H          5.88867        5.62033       -1.61830
H          7.07663        4.33330       -1.34881
