96
Cat406.ts34.5.log	Energy: -2684983.2340648
C         -0.61262        2.71904       -2.03747
H         -0.71679        2.65652       -3.12486
H         -1.49357        3.14939       -1.54652
C          0.67580        2.98976       -1.49289
H          1.54211        3.01221       -2.16132
H          0.77253        3.72686       -0.68632
H          0.67818        1.98816       -0.20551
Co         0.13081        1.05017       -1.21418
C         -0.79414        0.32690        1.92653
C         -2.93494        1.59499        0.37573
C         -2.23785       -1.14379       -0.12734
C          1.59796       -1.88921       -0.13127
C          3.11908       -0.36671       -1.95617
C          2.85855        0.64358        0.78169
P          1.85649       -0.10247       -0.59254
P         -1.42760        0.49752        0.19834
C         -0.18379        0.21911       -2.70150
O         -0.44920       -0.31602       -3.69315
C         -0.39573       -0.94035        2.38121
H         -0.57165       -1.82303        1.76634
C         -0.53337        1.44952        2.74727
C         -0.86383        2.85432        2.33157
H         -1.93742        3.07111        2.43189
H         -0.58322        3.03156        1.28223
H         -0.32504        3.58173        2.95385
C          0.23234       -1.11684        3.61092
H          0.52853       -2.12040        3.92492
C          0.08542        1.24860        3.98775
H          0.27677        2.11916        4.62196
C          0.47164       -0.01503        4.42639
H          0.95768       -0.13444        5.39734
H         -3.33172        1.49824        1.39623
H         -2.58157        2.63028        0.25822
C         -4.03186        1.31561       -0.61361
C         -3.77438        1.15314       -1.98103
H         -2.74864        1.22891       -2.34700
C         -5.35631        1.21260       -0.17281
H         -5.57655        1.31639        0.89261
C         -4.80256        0.87707       -2.87882
H         -4.60630        0.74077       -3.94388
C         -6.39692        0.94729       -1.05709
H         -7.42894        0.85478       -0.71453
C         -6.10403        0.77617       -2.40375
F         -7.09265        0.50734       -3.25796
H         -2.36504       -1.16559       -1.21941
H         -1.47296       -1.90725        0.07730
C         -3.54596       -1.48867        0.52636
C         -4.57796       -2.01595       -0.26082
H         -4.41587       -2.14825       -1.33365
C         -3.79169       -1.30446        1.89315
H         -3.00978       -0.89816        2.53695
C         -5.81653       -2.34182        0.28126
H         -6.62437       -2.73951       -0.33545
C         -5.02806       -1.61968        2.45269
H         -5.22605       -1.47356        3.51621
C         -6.02835       -2.13354        1.63771
F         -7.21565       -2.43050        2.16834
C          0.67089       -2.50779       -0.98550
H          0.19001       -1.91173       -1.76139
C          2.22920       -2.68120        0.85845
C          3.30523       -2.21156        1.79500
H          2.95418       -1.42559        2.47727
H          4.17557       -1.82648        1.24429
H          3.65515       -3.05043        2.41096
C          0.33816       -3.85461       -0.88445
H         -0.38566       -4.29046       -1.57658
C          1.85154       -4.02842        0.96599
H          2.32811       -4.63539        1.74031
C          0.92219       -4.62052        0.11814
H          0.66625       -5.67595        0.23665
H          2.53762       -0.82178       -2.77221
H          3.41035        0.63401       -2.30732
C          4.29574       -1.21371       -1.58780
C          5.47251       -0.65551       -1.06863
H          5.57167        0.42950       -0.98944
C          4.22521       -2.61087       -1.69436
H          3.32336       -3.07313       -2.10173
C          6.53471       -1.45387       -0.64981
H          7.45223       -1.02076       -0.24776
C          5.27525       -3.42394       -1.28043
H          5.21964       -4.51100       -1.35926
C          6.41786       -2.83395       -0.75382
F          7.42584       -3.60657       -0.35121
H          2.30240        0.40634        1.70008
H          3.82767        0.13056        0.83463
C          3.06159        2.12913        0.70366
C          3.82157        2.73519       -0.30525
H          4.28161        2.12617       -1.08428
C          2.50172        2.95791        1.68224
H          1.92338        2.50239        2.48767
C          4.00029        4.11453       -0.35371
H          4.58748        4.58735       -1.14284
C          2.66594        4.34034        1.65142
H          2.22685        4.98654        2.41382
C          3.41291        4.90490        0.62625
F          3.57640        6.22590        0.58551
