96
Cat435.ts34.5.log	Energy: -2684989.1759707
C          0.13182        2.81538        2.92083
H         -0.16643        2.73133        3.96968
H          1.15750        3.17717        2.78993
C         -0.84987        3.17797        1.95793
H         -1.89643        3.27124        2.26705
H         -0.59091        3.90151        1.17571
H         -0.47714        2.15367        0.71362
Co        -0.37850        1.20196        1.84022
C          1.67977        0.79670       -0.82728
C          2.98862        1.37197        1.71308
C          1.87378       -1.28817        1.26092
C         -1.84452       -1.59505        0.48584
C         -3.62734        0.30409        1.57738
C         -2.31068        0.84169       -0.96611
P         -1.94144        0.22643        0.74801
P          1.48415        0.52891        0.97608
C         -0.52985        0.30362        3.31263
O         -0.58869       -0.28749        4.30625
C          1.14800       -0.11670       -1.74796
H          0.69796       -1.04858       -1.40376
C          2.20595        1.99884       -1.31778
H          2.56577        2.75923       -0.62047
C          1.19241        0.15481       -3.11358
H          0.78344       -0.57226       -3.81950
C          2.25919        2.28673       -2.68511
C          2.85437        3.57499       -3.17576
H          2.88566        4.33386       -2.38064
H          3.88803        3.42439       -3.52945
H          2.28231        3.98693       -4.02051
C          1.75149        1.34066       -3.58363
H          1.78046        1.54340       -4.65755
H          2.90272        2.43449        1.44070
H          2.78301        1.32865        2.79344
C          4.35201        0.83257        1.41743
C          4.93736       -0.11116        2.27443
H          4.41194       -0.40750        3.18629
C          5.07964        1.22103        0.28280
H          4.66341        1.96139       -0.40093
C          6.17844       -0.67886        1.99960
H          6.62972       -1.41779        2.66385
C          6.32442        0.66842       -0.00579
H          6.88990        0.96769       -0.89006
C          6.85649       -0.28539        0.85335
F          8.04431       -0.82153        0.57885
H          2.58985       -1.28578        2.09804
H          0.93967       -1.70761        1.65496
C          2.36915       -2.16449        0.14782
C          1.57623       -3.23703       -0.27863
H          0.62262       -3.42730        0.21682
C          3.58586       -1.94379       -0.50935
H          4.22212       -1.11208       -0.20978
C          1.96725       -4.05821       -1.33352
H          1.34672       -4.89226       -1.66718
C          3.99492       -2.75682       -1.56156
H          4.94082       -2.58331       -2.07771
C          3.17615       -3.80356       -1.96704
F          3.55903       -4.57873       -2.98326
C         -1.63482       -2.40412        1.61438
H         -1.47726       -1.95181        2.59578
C         -2.03397       -2.21326       -0.75196
H         -2.20977       -1.61201       -1.64590
C         -1.65228       -3.78985        1.49687
H         -1.50300       -4.41033        2.38374
C         -2.02725       -3.60847       -0.89151
C         -2.19161       -4.23135       -2.24640
H         -2.99622       -3.74391       -2.81708
H         -1.26507       -4.12950       -2.83575
H         -2.42388       -5.30296       -2.17403
C         -1.84957       -4.38982        0.25244
H         -1.85605       -5.47977        0.16787
H         -3.44740       -0.08578        2.59078
H         -3.84824        1.37593        1.69497
C         -4.73695       -0.43399        0.89493
C         -5.57556        0.19283       -0.03689
H         -5.46728        1.26150       -0.23372
C         -4.93939       -1.80155        1.13461
H         -4.31151       -2.31803        1.86281
C         -6.56338       -0.51126       -0.72208
H         -7.21756       -0.02093       -1.44510
C         -5.91932       -2.52198        0.46028
H         -6.07317       -3.58631        0.64643
C         -6.71802       -1.86740       -0.46914
F         -7.65648       -2.55184       -1.12277
H         -1.54345        0.38965       -1.61096
H         -3.28974        0.44404       -1.27773
C         -2.23768        2.33254       -1.11361
C         -3.22754        3.18973       -0.61755
H         -4.10817        2.77908       -0.12149
C         -1.12709        2.90922       -1.74146
H         -0.34483        2.26371       -2.14160
C         -3.11560        4.57305       -0.73253
H         -3.88528        5.24320       -0.34581
C         -0.99429        4.28941       -1.86243
H         -0.12601        4.73628       -2.35028
C         -1.99332        5.10816       -1.35205
F         -1.87695        6.43116       -1.46327
