80
Cat401.ts34.5.log	Energy: -2053694.3229413
C          0.20578       -3.35266       -0.79250
H          0.01338       -3.76632       -1.78687
H          1.19598       -3.61727       -0.40210
C         -0.88245       -3.26040        0.12781
H         -1.89450       -3.50291       -0.21147
H         -0.71686       -3.58945        1.16223
H         -0.59043       -1.80650        0.80653
Co        -0.34877       -1.44028       -0.60623
C          1.70319        0.24185        1.56910
C          3.08829       -1.50073       -0.29976
C          1.96031        0.94751       -1.22334
C         -1.41554        1.80898       -0.76087
C         -3.51836       -0.09456       -0.67196
C         -2.01499        0.32501        1.75330
P         -1.77174        0.11512       -0.06457
P          1.54882       -0.48132       -0.12420
C         -0.48726       -1.36012       -2.33179
O         -0.50539       -1.34729       -3.48979
C          1.68392        1.63382        1.74392
H          1.66271        2.28980        0.87308
C          1.68879       -0.57990        2.72185
C          1.69263       -2.07851        2.64189
H          2.71753       -2.47245        2.54998
H          1.12154       -2.42547        1.76980
H          1.25089       -2.52094        3.54594
C          1.66487        2.21603        3.00964
H          1.65109        3.30441        3.10523
C          1.66172        0.02295        3.98429
H          1.64273       -0.61940        4.86948
C          1.65269        1.40654        4.14051
H          1.63109        1.84646        5.14026
H          3.95345       -0.93802        0.08870
H          2.97214       -2.38514        0.34374
C          3.32370       -1.95525       -1.73584
H          3.54890       -1.08423       -2.37293
H          2.38924       -2.38307       -2.13408
C          4.45037       -2.97019       -1.85025
H          5.40115       -2.56077       -1.47233
H          4.22749       -3.87845       -1.26734
H          4.61070       -3.27710       -2.89504
H          1.75937        0.57656       -2.24227
H          1.17786        1.70399       -1.05629
C          3.34693        1.57497       -1.14869
H          4.10213        0.85237       -1.49858
H          3.61214        1.79577       -0.10175
C          3.43792        2.84699       -1.97918
H          3.19913        2.64920       -3.03646
H          2.72125        3.60462       -1.62269
H          4.44555        3.28850       -1.93886
C         -1.28933        1.76873       -2.16138
H         -1.46068        0.82702       -2.68484
C         -1.19137        3.04464       -0.10847
C         -1.38424        3.31035        1.35949
H         -0.80955        2.63162        1.99913
H         -2.44318        3.22467        1.64632
H         -1.06734        4.33515        1.59671
C         -0.92120        2.87383       -2.91660
H         -0.83140        2.78565       -4.00148
C         -0.78995        4.14260       -0.88933
H         -0.59895        5.09144       -0.38057
C         -0.64453        4.07387       -2.26905
H         -0.32748        4.95472       -2.83218
H         -4.18635        0.48734       -0.01217
H         -3.56370        0.39003       -1.66051
C         -3.97849       -1.53950       -0.79933
H         -3.92145       -2.04416        0.17897
H         -3.26195       -2.07042       -1.44681
C         -5.38796       -1.65735       -1.35689
H         -6.12329       -1.15823       -0.70517
H         -5.46192       -1.19132       -2.35267
H         -5.69323       -2.70997       -1.45856
H         -1.02491        0.57774        2.16497
H         -2.68330        1.17782        1.93546
C         -2.55694       -0.89815        2.48246
H         -1.97358       -1.78872        2.20247
H         -3.59297       -1.09819        2.16203
C         -2.51248       -0.71639        3.99228
H         -1.47800       -0.55490        4.33590
H         -3.10495        0.15640        4.31075
H         -2.91016       -1.59884        4.51637
