92
Cat479.ts34.5.log	Energy: -2481079.4005006
C          0.63635        1.12009       -3.27663
H          0.53441        2.16713       -3.57347
H          1.64627        0.72150       -3.42772
C         -0.47578        0.24236       -3.43560
H         -1.43769        0.63855       -3.77569
H         -0.29125       -0.76826       -3.81991
H         -0.51352       -0.58608       -2.01109
Co        -0.20371        0.77618       -1.48610
O          1.44281        0.25734        1.17325
C          2.75930       -0.93704       -0.93281
C          2.76037        1.89906       -0.54315
O         -1.98393        1.04360        1.18376
C         -3.22936       -0.42606       -0.76025
C         -1.12018       -1.46859        0.84962
P         -1.58486        0.02463       -0.09659
P          1.64630        0.45118       -0.49166
C         -0.55830        2.46506       -1.23834
O         -0.72825        3.58751       -1.02960
C          2.38796       -0.20813        2.03875
C          2.46242       -1.58001        2.28818
H          1.77485       -2.24517        1.76481
C          3.25289        0.67371        2.69051
H          3.18113        1.74207        2.48396
C          3.40614       -2.06868        3.18653
H          3.45998       -3.14333        3.37747
C          4.19785        0.17330        3.58507
H          4.87481        0.86457        4.09319
C          4.28097       -1.19633        3.83482
H          5.02326       -1.58219        4.53727
C          4.05856       -1.08321       -0.42683
H          4.48411       -0.32290        0.23093
C          2.24454       -1.92269       -1.77885
H          1.23222       -1.78863       -2.16907
C          4.80256       -2.21261       -0.75505
H          5.80853       -2.33532       -0.34677
C          2.98355       -3.05732       -2.12904
C          2.42221       -4.08075       -3.07340
H          1.32281       -4.08575       -3.05376
H          2.72973       -3.87004       -4.11130
H          2.77395       -5.09401       -2.82916
C          4.26925       -3.19080       -1.59326
H          4.86522       -4.07412       -1.84087
C          3.84139        2.00134       -1.42582
H          4.13556        1.14606       -2.03804
C          2.39218        3.01283        0.21968
H          1.52880        2.93731        0.88776
C          4.54459        3.20031       -1.51930
H          5.39144        3.27999       -2.20551
C          3.08906        4.22092        0.13540
C          2.65294        5.40089        0.95442
H          1.61393        5.67611        0.71361
H          2.68540        5.17482        2.03201
H          3.28945        6.27812        0.77298
C          4.17479        4.29788       -0.74490
H          4.73162        5.23515       -0.82956
C         -3.22422        1.57183        1.40567
C         -4.21025        0.81971        2.04767
H         -3.98912       -0.20566        2.34835
C         -3.48464        2.88579        1.01378
H         -2.69785        3.45424        0.51538
C         -5.46085        1.38354        2.28732
H         -6.23123        0.79069        2.78655
C         -4.73828        3.44105        1.26127
H         -4.93987        4.46976        0.95261
C         -5.73110        2.69383        1.89408
H         -6.71362        3.13229        2.08241
C         -3.78757        0.42352       -1.72030
H         -3.21156        1.28256       -2.07332
C         -3.95393       -1.53714       -0.31690
H         -3.51554       -2.20447        0.42979
C         -5.06549        0.16815       -2.20947
H         -5.50731        0.83521       -2.95351
C         -5.23366       -1.81080       -0.80747
C         -6.01643       -2.98852       -0.30338
H         -6.78076       -2.66905        0.42451
H         -6.54293       -3.50363       -1.12085
H         -5.36605       -3.71824        0.19922
C         -5.77883       -0.93952       -1.75859
H         -6.77937       -1.13645       -2.15441
C         -1.20411       -1.51338        2.24347
H         -1.52465       -0.62615        2.79111
C         -0.66383       -2.58885        0.15100
H         -0.58941       -2.54736       -0.93893
C         -0.85816       -2.68376        2.91518
H         -0.92108       -2.72108        4.00527
C         -0.30004       -3.76568        0.81334
C          0.24702       -4.93236        0.04431
H         -0.29687       -5.08420       -0.89997
H          1.30509       -4.75900       -0.21479
H          0.19288       -5.86360        0.62562
C         -0.41581       -3.80012        2.20833
H         -0.13859       -4.71011        2.74766
