110
Cat445.ts34.5.log	Energy: -2862631.9494267
C          0.90370        1.88818       -2.74311
H          0.73531        2.96836       -2.79153
H          1.93437        1.59043       -2.96447
C         -0.15913        1.01965       -3.10392
H         -1.13348        1.43911       -3.37751
H          0.08829        0.11773       -3.67866
H         -0.18224       -0.12667       -1.85296
Co         0.09615        1.08919       -1.07530
C          2.36461       -1.20432       -1.90401
C          3.40371        0.85176       -0.13523
C          1.87449       -1.13092        0.96165
C         -1.54772       -0.02901        1.75650
C         -3.01987        1.72417        0.05443
C         -2.74437       -0.88308       -0.74740
P         -1.68210        0.44459       -0.02561
P          1.85276       -0.06560       -0.53782
C          0.15908        2.65356       -0.32734
O          0.23332        3.72507        0.10320
C          1.55745       -2.33038       -2.17612
O          0.46999       -2.46847       -1.39676
C         -0.39165       -3.55426       -1.58689
H         -1.24847       -3.37566       -0.92988
H         -0.75754       -3.60932       -2.62515
H          0.09953       -4.50889       -1.32502
C          3.42369       -0.94311       -2.79907
O          4.07184        0.22403       -2.64702
C          5.25609        0.47982       -3.34345
H          5.63158        1.43789       -2.96184
H          5.08532        0.56645       -4.43103
H          6.01385       -0.30088       -3.15849
C          3.75361       -1.84702       -3.81881
H          4.59335       -1.64669       -4.48301
C          1.87649       -3.23631       -3.19547
H          1.26291       -4.11914       -3.36827
C          2.98555       -2.99026       -3.99622
H          3.24349       -3.69480       -4.79049
C          4.53525        0.18909        0.36553
H          4.49945       -0.89028        0.53393
C          3.47543        2.22859       -0.31871
H          2.60644        2.76293       -0.70313
C          5.70073        0.87991        0.65023
H          6.58519        0.37140        1.03938
C          4.64006        2.94348       -0.02846
H          4.65128        4.02335       -0.17915
C          5.76410        2.26839        0.45428
O          6.93773        2.86122        0.76291
C          7.04991        4.24610        0.60632
H          6.32808        4.79260        1.23920
H          8.06787        4.51817        0.91401
H          6.90038        4.55661       -0.44351
C          1.65003       -0.45171        2.17091
H          1.43260        0.61987        2.14901
C          2.16721       -2.49028        1.01717
H          2.38861       -3.04127        0.10173
C          1.70808       -1.10964        3.38602
H          1.52699       -0.58381        4.32425
C          2.20753       -3.17484        2.23629
H          2.43772       -4.24098        2.23807
C          1.96758       -2.48605        3.42778
O          1.95355       -3.05995        4.65315
C          2.24011       -4.42317        4.75574
H          3.25194       -4.66297        4.38249
H          2.18620       -4.68023        5.82164
H          1.50943       -5.04316        4.20413
C         -1.49521       -1.34222        2.26354
O         -1.44257       -2.35220        1.37499
C         -1.45841       -3.66952        1.84761
H         -1.44942       -4.31946        0.96487
H         -0.56618       -3.88901        2.45745
H         -2.36827       -3.88281        2.43502
C         -1.40392        1.02656        2.68400
O         -1.27261        2.24508        2.14200
C         -1.28134        3.39465        2.93992
H         -1.16870        4.23924        2.25015
H         -0.43894        3.40135        3.65273
H         -2.23067        3.49093        3.49400
C         -1.39173        0.80203        4.06431
H         -1.31808        1.63408        4.76330
C         -1.49301       -1.57648        3.64676
H         -1.46967       -2.59167        4.03759
C         -1.45841       -0.50601        4.52912
H         -1.44702       -0.69858        5.60444
C         -4.05307        1.71810        1.00279
H         -4.05957        0.96940        1.79900
C         -3.03968        2.70655       -0.93113
H         -2.22853        2.72550       -1.66333
C         -5.06062        2.66805        0.96726
H         -5.86168        2.67665        1.70927
C         -4.05316        3.66541       -0.98918
H         -4.02811        4.41888       -1.77684
C         -5.07207        3.65146       -0.03381
O         -6.09271        4.53450        0.00983
C         -6.15372        5.53535       -0.96489
H         -6.24256        5.11481       -1.98257
H         -7.04901        6.13279       -0.74947
H         -5.26875        6.19594       -0.93380
C         -2.63304       -1.20730       -2.10314
H         -1.84918       -0.74365       -2.70064
C         -3.76908       -1.49285       -0.01811
H         -3.90096       -1.25347        1.03921
C         -3.49498       -2.11553       -2.70493
H         -3.40575       -2.36470       -3.76415
C         -4.63497       -2.41499       -0.59935
H         -5.41414       -2.87100        0.01217
C         -4.50123       -2.73484       -1.95704
O         -5.28826       -3.61278       -2.61358
C         -6.32796       -4.23687       -1.91670
H         -7.05498       -3.50642       -1.51944
H         -6.84019       -4.89182       -2.63319
H         -5.95304       -4.85170       -1.07868
