92
Cat486.ts34.5.log	Energy: -2481073.7847804
C         -1.18901        1.96807        3.46232
H         -0.96588        3.03321        3.56997
H         -2.25561        1.73879        3.55685
C         -0.24294        1.01875        3.94928
H          0.72059        1.36951        4.33568
H         -0.61351        0.14749        4.50195
H         -0.22483       -0.10477        2.73533
Co        -0.21890        1.13205        1.91823
O         -1.76618       -1.26780        0.54825
C         -3.57035        0.69072        1.33435
C         -1.86611        0.94603       -1.04749
O          1.48375        0.39518       -0.64695
C          3.05329        0.61435        1.68972
C          1.37781       -1.73408        1.06805
P          1.39317        0.12444        1.00605
P         -1.82987        0.41498        0.72901
C          0.32953        2.70361        1.40730
O          0.72059        3.74623        1.10454
C         -2.64779       -2.17753        0.04797
C         -3.02622       -3.22526        0.89208
H         -2.63559       -3.23667        1.91157
C         -3.10556       -2.14981       -1.27222
H         -2.79142       -1.35336       -1.94486
C         -3.88753       -4.21648        0.43168
H         -4.18063       -5.02917        1.10094
C         -3.97696       -3.13983       -1.71914
H         -4.34570       -3.09977       -2.74671
C         -4.37638       -4.17335       -0.87364
H         -5.05827       -4.94669       -1.23343
H         -3.59949        1.77708        1.51803
H         -3.58596        0.21805        2.32913
C         -4.74198        0.24026        0.51547
C         -5.44185       -0.92305        0.85994
H         -5.13693       -1.48806        1.74338
C         -5.16962        0.95849       -0.60998
H         -4.67345        1.89351       -0.88127
C         -6.50157       -1.38145        0.08425
H         -7.01949       -2.30042        0.36765
C         -6.23088        0.50190       -1.38959
H         -6.54357        1.07700       -2.26457
C         -6.89497       -0.67542       -1.05186
H         -7.72397       -1.03567       -1.66546
H         -2.84144        0.70005       -1.49585
H         -1.10149        0.31124       -1.51964
C         -1.51077        2.38722       -1.26849
C         -0.41460        2.71481       -2.07398
H          0.16795        1.91322       -2.53267
C         -2.23354        3.43364       -0.68023
H         -3.08678        3.21554       -0.03443
C         -0.04903        4.04159       -2.28590
H          0.81799        4.26676       -2.91170
C         -1.87024        4.76159       -0.88839
H         -2.44296        5.55974       -0.41020
C         -0.77421        5.07145       -1.69096
H         -0.48324        6.11284       -1.84645
C          2.51732        0.86872       -1.39664
C          3.11641        0.02480       -2.33389
H          2.77085       -1.00557       -2.41721
C          2.92900        2.19964       -1.27780
H          2.41641        2.86288       -0.57851
C          4.15344        0.50843       -3.12723
H          4.62544       -0.15826       -3.85298
C          3.97537        2.66805       -2.07138
H          4.30045        3.70632       -1.97003
C          4.59613        1.82526       -2.99328
H          5.41532        2.19681       -3.61280
H          2.81226        0.73789        2.75716
H          3.23924        1.62903        1.30558
C          4.25050       -0.27107        1.52700
C          5.11711       -0.15180        0.43318
H          4.93757        0.61765       -0.31882
C          4.53153       -1.24757        2.49305
H          3.88684       -1.33354        3.37280
C          6.20629       -1.00768        0.29238
H          6.86291       -0.90049       -0.57426
C          5.62272       -2.10338        2.35577
H          5.82032       -2.85825        3.12059
C          6.46029       -1.99254        1.24662
H          7.31483       -2.66366        1.13301
H          0.32924       -1.97471        1.28855
H          1.98680       -2.02158        1.93882
C          1.81628       -2.45050       -0.17349
C          3.11738       -2.93893       -0.33199
H          3.84624       -2.80962        0.46932
C          0.89916       -2.63707       -1.21745
H         -0.12126       -2.26842       -1.09825
C          3.49557       -3.58679       -1.50716
H          4.51854       -3.95682       -1.61018
C          1.27480       -3.28574       -2.39037
H          0.54240       -3.42340       -3.18956
C          2.57865       -3.76023       -2.54257
H          2.87575       -4.26858       -3.46306
