94
Cat447.ts34.5.log	Energy: -3728653.0245005
C          0.91356        1.35247       -3.05681
H          0.72122        2.39912       -3.31095
H          1.95224        1.04124       -3.21175
C         -0.12464        0.40637       -3.24572
H         -1.10636        0.74006       -3.59880
H          0.14848       -0.58523       -3.62861
H         -0.13549       -0.47840       -1.78783
Co         0.11288        0.87091       -1.26354
C          2.41609       -1.51446       -1.61094
C          3.42387        0.85824       -0.28192
C          1.87795       -0.86584        1.17461
C         -1.59951        0.35293        1.71402
C         -3.05102        1.64040       -0.37521
C         -2.68914       -1.06257       -0.57371
P         -1.67133        0.41956       -0.13033
P          1.87644       -0.13126       -0.51324
C          0.16688        2.55122       -0.82533
O          0.24125        3.68302       -0.60355
C          1.62870       -2.68582       -1.64832
O          0.53804       -2.67769       -0.86068
C         -0.28264       -3.81014       -0.79104
H         -1.13991       -3.52167       -0.17486
H         -0.65327       -4.10859       -1.78517
H          0.24711       -4.66319       -0.33096
C          3.47727       -1.41948       -2.53587
O          4.10228       -0.23325       -2.61781
C          5.28823       -0.09807       -3.34849
H          5.64346        0.92400       -3.16494
H          5.12191       -0.23325       -4.43128
H          6.05773       -0.81190       -3.00862
C          3.82931       -2.50601       -3.34809
H          4.66974       -2.43072       -4.03684
C          1.97178       -3.77470       -2.45856
H          1.37618       -4.68624       -2.44944
C          3.08209       -3.67529       -3.28916
H          3.35793       -4.52228       -3.92164
C          3.48926        2.17283       -0.74284
H          2.62429        2.61256       -1.23976
C          4.54185        0.31327        0.36086
H          4.50544       -0.70993        0.74285
C          4.64826        2.93090       -0.58667
H          4.69639        3.96028       -0.94571
C          5.70830        1.05217        0.51863
H          6.58152        0.62588        1.01541
C          5.75490        2.36168        0.03772
Cl         7.20696        3.29038        0.22771
C          1.58618        0.03633        2.20556
H          1.35967        1.07763        1.95969
C          2.18329       -2.18743        1.50533
H          2.46195       -2.89892        0.72647
C          1.57068       -0.36913        3.53368
H          1.32758        0.33459        4.32999
C          2.14752       -2.61624        2.83104
H          2.36963       -3.65307        3.09026
C          1.82321       -1.70613        3.83368
Cl         1.68413       -2.25494        5.47562
C         -1.53540       -0.81509        2.49954
O         -1.40648       -1.99104        1.85856
C         -1.45559       -3.17756        2.60614
H         -1.37142       -4.00247        1.88937
H         -0.61953       -3.24180        3.32103
H         -2.41082       -3.27505        3.14967
C         -1.52387        1.59242        2.38765
O         -1.40837        2.66417        1.59172
C         -1.47575        3.96246        2.11466
H         -1.36121        4.63787        1.25897
H         -0.65921        4.15365        2.83127
H         -2.44619        4.14561        2.60608
C         -1.56136        1.67730        3.78284
H         -1.53806        2.64439        4.28328
C         -1.59328       -0.73869        3.89911
H         -1.56260       -1.64122        4.50623
C         -1.61958        0.50126        4.52217
H         -1.65154        0.55044        5.61307
C         -4.12511        1.78173        0.51026
H         -4.15116        1.20483        1.43780
C         -3.03836        2.40726       -1.54037
H         -2.19000        2.30812       -2.22180
C         -5.15807        2.67334        0.24467
H         -5.99064        2.79128        0.94036
C         -4.06991        3.29903       -1.82731
H         -4.05505        3.89964       -2.73822
C         -5.12512        3.42828       -0.92894
Cl        -6.40997        4.54250       -1.26387
C         -3.70418       -1.54679        0.26268
H         -3.86018       -1.10198        1.24736
C         -2.54133       -1.64563       -1.83260
H         -1.76442       -1.28320       -2.50421
C         -4.52184       -2.59925       -0.12856
H         -5.30288       -2.97764        0.53298
C         -3.36117       -2.69385       -2.24911
H         -3.23668       -3.14155       -3.23649
C         -4.34254       -3.17343       -1.38849
Cl        -5.35481       -4.49002       -1.88156
