84
Cat415.ts34.5.log	Energy: -2337408.2467323
C         -0.47797       -1.94709       -2.94886
H          0.02548       -2.91410       -3.04072
H         -1.55377       -1.97753       -3.14789
C          0.24113       -0.77156       -3.26515
H          1.29640       -0.84358       -3.55216
H         -0.28921        0.03296       -3.78756
H          0.01798        0.28334       -1.96242
Co         0.03797       -1.00933       -1.23376
C         -1.76068        1.49094        0.30432
C         -3.17759       -0.14530       -1.55216
C         -2.53540       -1.13036        1.04877
C          1.67061       -0.33529        1.57863
C          3.34961       -1.21881       -0.57118
C          2.45169        1.42517       -0.57849
P          1.79949       -0.26710       -0.24751
P         -1.77660       -0.22922       -0.36607
C          0.13559       -2.57017       -0.49080
O          0.16611       -3.61028        0.00684
C         -2.53224        1.87578        1.40827
H         -3.17758        1.15024        1.90627
C         -0.93523        2.43910       -0.30580
H         -0.31252        2.13291       -1.15048
C         -2.46549        3.18360        1.87969
H         -3.06346        3.47754        2.74607
C         -0.86360        3.76097        0.15047
C          0.04716        4.74508       -0.52151
H          1.10094        4.45610       -0.38795
H         -0.13638        4.78315       -1.60620
H         -0.08382        5.75840       -0.11663
C         -1.63854        4.11843        1.25843
H         -1.59177        5.14262        1.63895
C         -3.71773       -1.35113       -2.02649
C         -3.65875        1.05951       -2.07558
C         -5.19510       -0.14181       -3.50657
C         -4.65836        1.05932       -3.04890
C         -4.72395       -1.34889       -2.98784
H         -3.35140       -2.30027       -1.62503
H         -5.14048       -2.29658       -3.33807
H         -5.98090       -0.13964       -4.26571
H         -5.02467        2.00942       -3.44586
H         -3.25559        2.00790       -1.71343
C         -1.67945       -1.65303        2.02566
C         -3.91983       -1.25696        1.22536
C         -3.57232       -2.40144        3.32620
C         -4.43345       -1.89335        2.35421
C         -2.19402       -2.27639        3.15985
H         -0.59912       -1.56706        1.90306
H         -1.50628       -2.67203        3.91083
H         -3.97666       -2.89909        4.21116
H         -5.51541       -1.98856        2.47567
H         -4.60353       -0.85088        0.47672
C          2.09714       -1.47123        2.27508
H          2.64700       -2.25933        1.75635
C          0.94556        0.65218        2.26085
H          0.58027        1.52778        1.71867
C          1.80833       -1.60017        3.63319
H          2.14535       -2.48772        4.17442
C          0.64648        0.53117        3.61989
C         -0.18442        1.56775        4.31578
H         -0.14290        2.53450        3.79527
H         -1.24233        1.25672        4.33348
H          0.13624        1.71210        5.35815
C          1.09299       -0.60979        4.29997
H          0.86844       -0.72366        5.36419
C          3.31394       -2.25774       -1.50325
C          4.56034       -0.91246        0.06412
C          5.66401       -2.68293       -1.15399
C          5.70894       -1.64318       -0.22233
C          4.46641       -2.98818       -1.79493
H          2.36391       -2.48724       -1.99189
H          4.42471       -3.80023       -2.52481
H          6.56783       -3.25455       -1.37889
H          6.64745       -1.40037        0.28212
H          4.60448       -0.09776        0.79109
C          2.42535        1.88255       -1.90222
C          3.07097        2.21819        0.39483
C          3.64112        3.87271       -1.27507
C          3.65875        3.43470        0.04800
C          3.01916        3.09323       -2.24994
H          1.94008        1.27523       -2.66916
H          2.99512        3.42997       -3.28910
H          4.10587        4.82383       -1.54539
H          4.13760        4.04196        0.82010
H          3.09839        1.88415        1.43420
