118
Cat443.ts34.5.log	Energy: -2584450.0004009
C         -0.66128        0.00483       -3.40051
H         -0.34704       -0.80521       -4.06555
H         -1.72856        0.23737       -3.47759
C          0.25388        1.06953       -3.15398
H          1.26846        0.99758       -3.56247
H         -0.12267        2.09958       -3.17469
H          0.09162        1.32398       -1.54403
Co         0.07777       -0.15940       -1.54814
C         -2.29085        1.50467        0.36973
C         -3.28476       -0.60878       -1.31157
C         -1.74760       -1.30574        1.15020
C          2.37334       -1.36750        0.63324
C          3.32598        0.67641       -1.23704
C          1.62325        1.47041        1.07534
P          1.79821        0.16852       -0.25595
P         -1.75157       -0.14481       -0.32130
C          0.36506       -1.82185       -1.92308
O          0.47515       -2.93273       -2.23783
C         -2.29796        1.92150        1.71756
O         -1.80034        1.06897        2.64348
C         -1.90826        1.37205        4.00319
H         -1.52127        0.49995        4.54596
H         -1.30932        2.25824        4.27835
H         -2.95621        1.53955        4.30622
C         -2.66280        2.48637       -0.58111
O         -2.55971        2.11947       -1.87533
C         -2.92647        3.00835       -2.89112
H         -2.74234        2.48555       -3.83842
H         -2.31780        3.92886       -2.86886
H         -3.99425        3.28198       -2.83043
C         -3.11170        3.75866       -0.21499
H         -3.40976        4.48276       -0.97145
C         -2.76826        3.18723        2.09731
H         -2.78819        3.47568        3.14686
C         -3.17820        4.09269        1.13143
H         -3.53807        5.07967        1.43029
H         -3.11491       -0.02716       -2.22815
C         -4.66541       -0.19111       -0.80293
H         -4.66633        0.86532       -0.49598
H         -4.94185       -0.77087        0.09120
C         -5.71601       -0.42195       -1.88688
H         -6.71425       -0.13451       -1.51673
H         -5.49913        0.24158       -2.74446
C         -5.72219       -1.87070       -2.36295
H         -6.46001       -2.00940       -3.17049
H         -6.04900       -2.51988       -1.52984
C         -4.33723       -2.31245       -2.82257
H         -4.05408       -1.74569       -3.72806
H         -4.34883       -3.37573       -3.11358
C         -3.28380       -2.07558       -1.74347
H         -3.50531       -2.72716       -0.88118
H         -2.28874       -2.36432       -2.11409
H         -1.06921       -0.79739        1.85059
C         -1.09227       -2.65540        0.83910
H         -0.09507       -2.49025        0.41279
H         -1.66556       -3.20964        0.07982
C         -0.97159       -3.50776        2.09904
H         -0.52443       -4.48282        1.84669
H         -0.26147       -3.01879        2.78682
C         -2.30290       -3.68872        2.81581
H         -2.16884       -4.27647        3.73934
H         -2.98975       -4.27050        2.17429
C         -2.93703       -2.33793        3.12217
H         -2.29878       -1.78930        3.83950
H         -3.91624       -2.46897        3.61234
C         -3.09045       -1.51033        1.85051
H         -3.77279       -2.05087        1.17428
H         -3.56731       -0.54493        2.07234
C          2.12453       -1.68464        1.98644
O          1.44509       -0.78017        2.72837
C          1.34735       -0.93997        4.11350
H          0.86532       -0.03067        4.49499
H          0.72800       -1.81162        4.38808
H          2.34008       -1.04127        4.58469
C          2.97106       -2.38883       -0.14519
O          3.16912       -2.10330       -1.44486
C          3.59838       -3.09909       -2.33051
H          3.61262       -2.63736       -3.32594
H          2.89708       -3.94869       -2.34404
H          4.61478       -3.45305       -2.08537
C          3.34964       -3.62029        0.39918
H          3.80892       -4.38305       -0.22717
C          2.52990       -2.90334        2.54612
H          2.34144       -3.11682        3.59686
C          3.13755       -3.86163        1.74884
H          3.43835       -4.81724        2.18404
H          3.20272        0.04125       -2.12729
C          4.70893        0.37415       -0.65499
H          4.76016       -0.64595       -0.25267
H          4.91797        1.05025        0.18952
C          5.77985        0.56847       -1.72556
H          6.77846        0.35629       -1.30886
H          5.61446       -0.17072       -2.53056
C          5.74002        1.97506       -2.31354
H          6.47955        2.07714       -3.12483
H          6.03680        2.69785       -1.53156
C          4.34513        2.33546       -2.81332
H          4.09163        1.70530       -3.68514
H          4.32271        3.37947       -3.16718
C          3.29166        2.12516       -1.72854
H          3.50718        2.81019       -0.89167
H          2.29483        2.39133       -2.10728
H          0.86955        1.02272        1.73899
C          1.01451        2.79016        0.58897
H          0.08983        2.58898        0.02999
H          1.69593        3.31073       -0.09957
C          0.72210        3.70608        1.77424
H          0.28511        4.65290        1.41781
H         -0.04954        3.23432        2.40422
C          1.96180        3.96406        2.62097
H          1.71421        4.60393        3.48437
H          2.70514        4.52318        2.02360
C          2.58320        2.65235        3.08478
H          1.88232        2.13989        3.76903
H          3.50305        2.84015        3.66329
C          2.88236        1.73864        1.90075
H          3.63475        2.23425        1.26490
H          3.33510        0.79666        2.24358
