92
Cat470.ts34.5.log	Energy: -2386122.9115475
C         -1.83506        0.99823       -2.52688
H         -1.91273        0.23034       -3.30070
H         -2.79820        1.24905       -2.07177
C         -0.83402        1.99892       -2.64554
H         -0.09083        1.92780       -3.44559
H         -1.09317        3.03624       -2.40194
H         -0.26827        2.08359       -1.09912
Co        -0.35005        0.61268       -1.22098
O         -3.02400        0.04884        0.58391
O         -0.79659       -0.54527        1.69683
O         -1.60045        1.77195        1.58024
O          2.35375        0.00166        0.54551
O          2.70963        0.59238       -1.93051
O          2.18901        2.29813       -0.22401
P          1.66009        0.84087       -0.72531
P         -1.39534        0.47389        0.58852
C         -0.23200       -0.97564       -1.93597
O         -0.18887       -2.00238       -2.45192
C         -3.54517       -0.89103       -0.25181
C         -2.89280       -2.09755       -0.51645
H         -1.92874       -2.30750       -0.05165
C         -4.78866       -0.62534       -0.83071
H         -5.28088        0.32190       -0.60132
C         -3.47847       -3.02180       -1.37950
H         -2.95310       -3.95526       -1.59408
C         -5.37093       -1.56196       -1.67940
H         -6.34393       -1.34905       -2.12898
C         -4.71642       -2.76158       -1.96363
H         -5.17183       -3.49086       -2.63693
C         -1.37290       -0.75814        2.98679
H         -0.52188       -0.82855        3.68333
H         -1.97547        0.11652        3.27313
C         -2.19736       -2.02823        3.01979
H         -2.64100       -2.11871        4.02729
H         -3.04489       -1.91738        2.32383
C         -1.40361       -3.28209        2.68306
H         -0.64807       -3.45509        3.46880
H         -0.82190       -3.10391        1.76399
C         -2.27405       -4.51557        2.51609
H         -2.84856       -4.73314        3.43134
H         -2.99940       -4.37836        1.69774
H         -1.67084       -5.40614        2.28194
C         -1.87115        3.05984        1.06637
H         -1.72387        3.75409        1.90897
H         -1.12031        3.31790        0.29530
C         -3.26722        3.20899        0.49534
H         -3.38659        2.51489       -0.35297
H         -3.99991        2.88642        1.25389
C         -3.55898        4.62941        0.03591
H         -2.79385        4.93935       -0.69868
H         -3.45143        5.32214        0.88947
C         -4.94158        4.78210       -0.57715
H         -5.06031        4.12801       -1.45582
H         -5.72891        4.51013        0.14383
H         -5.13024        5.81591       -0.90326
C          2.21027       -1.31598        0.85262
C          2.24647       -1.66453        2.20479
H          2.33070       -0.86900        2.94722
C          2.10129       -2.30659       -0.12331
H          2.10433       -2.03735       -1.17898
C          2.17333       -3.00233        2.57507
H          2.20679       -3.26953        3.63414
C          2.00531       -3.64401        0.26084
H          1.90843       -4.41173       -0.51048
C          2.04612       -3.99999        1.60646
H          1.97787       -5.04904        1.90185
C          4.12388        0.76623       -1.80280
H          4.44421        1.28948       -2.71777
H          4.34265        1.42075       -0.94584
C          4.83102       -0.56534       -1.66678
H          5.91268       -0.36382       -1.57068
H          4.52446       -1.03740       -0.71865
C          4.58006       -1.52060       -2.82516
H          4.98583       -1.08143       -3.75382
H          3.49298       -1.60466       -2.98952
C          5.17648       -2.89912       -2.59494
H          6.26718       -2.84640       -2.44561
H          4.74421       -3.36950       -1.69692
H          4.98942       -3.56986       -3.44712
C          1.78468        2.81266        1.04196
H          1.40946        3.83437        0.86318
H          0.94953        2.22024        1.45138
C          2.94567        2.83252        2.01335
H          2.56729        3.18825        2.98824
H          3.28410        1.79425        2.16474
C          4.11069        3.70037        1.55979
H          3.76386        4.74268        1.44293
H          4.42335        3.37571        0.55348
C          5.29505        3.65363        2.51075
H          5.01462        3.99837        3.51933
H          5.68284        2.62717        2.61216
H          6.12288        4.28897        2.16114
