92
Cat493.ts34.5.log	Energy: -2730050.2004305
C         -1.22206        0.67829        3.97281
H         -1.28766        1.71457        4.31586
H         -2.16675        0.13197        4.06372
C         -0.00690       -0.03568        4.17853
H          0.86371        0.48791        4.58954
H         -0.06291       -1.07430        4.52495
H          0.15868       -0.83271        2.73153
Co        -0.24040        0.49902        2.22903
O         -1.32519       -2.07323        0.76922
C         -3.46687       -0.51546        1.67478
C         -1.95062        0.02750       -0.79379
O          1.45896        0.77831       -0.45149
C          3.03057        0.89870        1.89357
C          1.96148       -1.61359        0.77295
P          1.51384        0.16040        1.10949
P         -1.72759       -0.42405        0.99335
C         -0.17655        2.23335        2.09082
O         -0.10265        3.38393        2.03039
C         -2.12321       -3.05188        0.26582
C         -2.83290       -3.87325        1.14830
H         -2.72675       -3.70643        2.22204
C         -2.20344       -3.28433       -1.11135
H         -1.62612       -2.66196       -1.79582
C         -3.64960       -4.88756        0.65418
H         -4.20639       -5.51851        1.35090
C         -3.02191       -4.30180       -1.59732
H         -3.08395       -4.47204       -2.67475
C         -3.75633       -5.09970       -0.72022
H         -4.39966       -5.89311       -1.10615
H         -3.49807       -1.47111        2.22327
H         -3.47343        0.27176        2.44027
C         -4.67696       -0.35470        0.80365
C         -5.44738        0.81072        0.91297
H         -5.14166        1.58965        1.61591
C         -5.09183       -1.33227       -0.11102
H         -4.52971       -2.26133       -0.21111
C         -6.58685        1.00863        0.13916
H         -7.18480        1.91768        0.22356
C         -6.22375       -1.14709       -0.90117
H         -6.54834       -1.90702       -1.61416
C         -6.95885        0.02472       -0.76772
F         -8.04490        0.20361       -1.51890
H         -0.96641       -0.19369       -1.23780
H         -2.69356       -0.65113       -1.23654
C         -2.32596        1.45467       -1.06219
C         -3.60410        1.79440       -1.51904
H         -4.34312        1.00923       -1.69095
C         -1.38985        2.47988       -0.88290
H         -0.38093        2.21658       -0.56985
C         -3.95134        3.12029       -1.76419
H         -4.94700        3.39213       -2.11920
C         -1.71995        3.80995       -1.11889
H         -0.99320        4.61101       -0.97444
C         -3.00487        4.11438       -1.55032
F         -3.33405        5.38695       -1.77715
C          2.30101        1.65429       -1.07005
C          3.04816        1.21577       -2.16414
H          2.96696        0.17522       -2.47730
C          2.36899        2.98725       -0.65472
H          1.75025        3.32916        0.17803
C          3.89174        2.10814       -2.81983
H          4.48064        1.75941       -3.67153
C          3.22440        3.86911       -1.31437
H          3.28183        4.90858       -0.98306
C          3.99320        3.43322       -2.39303
H          4.66098        4.12757       -2.90735
H          2.93670        1.98538        1.74578
H          2.82049        0.72586        2.96062
C          4.40383        0.40813        1.55075
C          4.97683       -0.63762        2.28758
H          4.42443       -1.07299        3.12513
C          5.15731        0.97351        0.51341
H          4.75254        1.80808       -0.06028
C          6.24333       -1.13336        1.98578
H          6.69263       -1.94698        2.55779
C          6.42256        0.48964        0.19654
H          7.00867        0.92468       -0.61479
C          6.94892       -0.56566        0.93200
F          8.15861       -1.03365        0.63003
H          2.64449       -1.91787        1.58116
H          1.01430       -2.15265        0.91744
C          2.52925       -1.92465       -0.57801
C          1.65811       -2.12834       -1.65641
H          0.58190       -2.07154       -1.48288
C          3.90492       -2.01820       -0.81361
H          4.60665       -1.87223        0.00810
C          2.13527       -2.40590       -2.93347
H          1.46086       -2.56657       -3.77643
C          4.40190       -2.29582       -2.08509
H          5.47468       -2.36950       -2.27181
C          3.50941       -2.48339       -3.13246
F          3.97727       -2.74906       -4.35180
