58
Cat494.ts34.5.log	Energy: -1950877.5153394
C         -4.43815        0.89319       -0.19857
H         -5.18070        0.45756        0.47602
H         -4.41112        1.98803       -0.16319
C         -4.18996        0.24650       -1.44770
H         -4.66821       -0.71634       -1.65631
H         -4.10546        0.86474       -2.34964
H         -2.55761        0.36589       -1.53419
Co        -2.67996       -0.05264       -0.11803
O         -0.02260        1.59997       -0.58828
C         -1.92388        3.27513        0.40463
C         -0.62417        1.43142        2.09328
O          0.07069       -1.45680        0.38236
C         -1.67292       -3.24574       -0.70796
C         -0.43532       -1.26170       -2.31253
P         -1.23663       -1.47186       -0.68967
P         -1.37926        1.52701        0.43178
C         -3.16885       -0.92837        1.30281
O         -3.47315       -1.48592        2.26668
C          1.09066        2.34878       -0.35137
C          2.13582        1.83522        0.42211
H          2.03057        0.84115        0.85946
C          1.22624        3.60953       -0.93517
H          0.41669        3.99281       -1.55943
C          3.29273        2.58430        0.61187
H          4.10351        2.16593        1.21521
C          2.39064        4.34811       -0.73621
H          2.48498        5.33174       -1.20501
C          3.44278        3.85581        0.04361
C          4.68370        4.66707        0.28136
H          4.64161        5.18216        1.25581
H          4.81593        5.43799       -0.49125
H          5.58389        4.03447        0.28864
H         -2.73557        3.39304        1.13809
H         -1.10786        3.96930        0.65598
H         -2.32076        3.51973       -0.59141
H          0.09778        2.23509        2.30078
H         -1.44928        1.48175        2.81996
H         -0.14108        0.44936        2.19210
C          1.19380       -2.22044        0.24926
C          2.27584       -1.76282       -0.50593
H          2.20193       -0.79858       -1.01157
C          1.29370       -3.43766        0.92655
H          0.45255       -3.77315        1.53638
C          3.43730       -2.52692       -0.58730
H          4.27924       -2.15283       -1.17660
C          2.46089       -4.19022        0.83523
H          2.52729       -5.13842        1.37631
C          3.55246       -3.75525        0.07335
C          4.79544       -4.58915       -0.04451
H          5.67198       -3.97343       -0.29240
H          4.69176       -5.34675       -0.83952
H          5.01041       -5.12751        0.89037
H         -0.81961       -3.89140       -0.96535
H         -2.06847       -3.52592        0.27891
H         -2.47432       -3.38603       -1.44864
H         -0.02299       -0.24388       -2.35222
H          0.35378       -2.00491       -2.49692
H         -1.21565       -1.35625       -3.08233
