96
Cat490.ts34.5.log	Energy: -2669737.1513178
C         -0.71992       -2.96823       -1.86022
H         -0.21600       -3.89467       -1.56855
H         -1.81188       -3.03550       -1.90179
C         -0.05073       -2.05168       -2.68769
H          0.97290       -2.24866       -3.02360
H         -0.63652       -1.46341       -3.40091
H         -0.12761       -0.43735       -1.83739
Co        -0.04840       -1.40202       -0.73264
O         -1.72762        1.23586       -0.94200
C         -3.30833       -0.96270       -0.92681
C         -2.09757        0.04930        1.57039
O          2.10213       -0.22204        1.24110
C          3.31026       -1.29450       -0.94303
C          1.96919        1.24307       -1.15165
P          1.78462       -0.41693       -0.40051
P         -1.77314       -0.28068       -0.21443
C          0.05606       -2.49462        0.61565
O          0.07004       -3.20358        1.52438
C         -2.52971        2.32686       -0.88675
C         -2.07433        3.44085       -1.60529
H         -1.13270        3.35268       -2.15023
C         -3.74200        2.39197       -0.19820
H         -4.12737        1.51571        0.32074
C         -2.81376        4.61842       -1.60778
H         -2.44733        5.48069       -2.17094
C         -4.47072        3.58194       -0.20792
H         -5.41810        3.62508        0.33571
C         -4.01519        4.70074       -0.90110
H         -4.59521        5.62612       -0.90125
C         -3.90456       -0.43867       -2.07104
H         -3.53554        0.50186       -2.48417
C         -3.76325       -2.19952       -0.42753
O         -3.10348       -2.65038        0.65577
C         -3.33105       -3.94655        1.13086
H         -4.34709       -4.05559        1.54992
H         -2.59049       -4.11815        1.92154
H         -3.18856       -4.69864        0.33564
C         -4.96616       -1.10159       -2.69280
H         -5.42926       -0.67196       -3.58342
C         -4.82097       -2.86798       -1.04328
H         -5.17800       -3.82169       -0.65275
C         -5.42235       -2.30796       -2.17428
H         -6.25069       -2.83463       -2.65439
C         -0.94228        0.23389        2.33862
H          0.02974        0.20601        1.84295
C         -3.34035        0.02497        2.24152
O         -4.44845       -0.16144        1.49778
C         -5.68256       -0.39536        2.11207
H         -5.63167       -1.25240        2.80568
H         -6.38773       -0.62904        1.30395
H         -6.04589        0.48982        2.66318
C         -0.99628        0.42942        3.71689
H         -0.07161        0.57066        4.28017
C         -3.39675        0.20038        3.62849
H         -4.35673        0.17965        4.14454
C         -2.22919        0.40863        4.35912
H         -2.29328        0.54439        5.44173
C          3.27600        0.09790        1.85081
C          3.55138        1.42437        2.18914
H          2.82627        2.19033        1.91597
C          4.17144       -0.91770        2.19185
H          3.92509       -1.94805        1.92980
C          4.73324        1.73169        2.85770
H          4.94626        2.77004        3.12488
C          5.35467       -0.59822        2.85507
H          6.05477       -1.39480        3.11912
C          5.64230        0.72536        3.18868
H          6.56799        0.97133        3.71413
C          3.15910       -2.64494       -1.26594
H          2.14820       -3.05918       -1.22268
C          4.61037       -0.73816       -0.96652
O          4.72288        0.55428       -0.63519
C          5.98619        1.14622       -0.52388
H          6.60872        0.62560        0.22287
H          5.81297        2.17447       -0.18434
H          6.51253        1.16925       -1.49404
C          4.24598       -3.44637       -1.61030
H          4.09834       -4.50011       -1.85411
C          5.70469       -1.53752       -1.31740
H          6.70989       -1.11622       -1.33347
C          5.51682       -2.88145       -1.63620
H          6.38407       -3.49015       -1.90472
C          2.53050        1.34887       -2.42587
H          2.95647        0.45585       -2.89100
C          1.39352        2.39101       -0.57249
O          0.80846        2.24024        0.63012
C          0.17125        3.33223        1.24057
H          0.89326        4.12666        1.50058
H         -0.28642        2.94407        2.15889
H         -0.62021        3.75191        0.59951
C          2.56440        2.56059       -3.11141
H          3.00974        2.61540       -4.10681
C          1.45459        3.61835       -1.24336
H          1.02951        4.51262       -0.78795
C          2.03538        3.69740       -2.50722
H          2.06609        4.66086       -3.02209
