100
Cat426.ts34.5.log	Energy: -2624763.6838190
C         -0.28763        2.64107       -2.45402
H         -0.56834        3.62764       -2.07327
H          0.67017        2.61169       -2.98256
C         -1.28550        1.70847       -2.75523
H         -2.33972        1.94503       -2.59106
H         -1.11289        0.98017       -3.55251
H         -0.67635        0.14475       -1.83781
Co        -0.38594        1.25258       -0.93541
C          1.69861       -1.24100       -1.97727
O          2.91667        0.97803       -1.47425
O          1.84387       -0.19598        0.56061
C         -1.10623       -0.37817        1.87268
O         -3.15549        0.78994        0.87963
O         -2.23458       -1.21979       -0.46490
P         -1.72800        0.19058        0.26109
P          1.47300        0.27858       -0.98534
C         -0.12161        2.46146        0.30050
O          0.05892        3.21549        1.14953
C          0.65416       -2.17501       -1.98177
H         -0.28945       -1.95644       -1.47474
C          2.88200       -1.52572       -2.66308
H          3.68695       -0.78999       -2.65254
C          0.82217       -3.39106       -2.63740
H          0.01375       -4.12607       -2.62929
C          3.05491       -2.73845       -3.33959
C          4.32596       -3.01399       -4.08917
H          4.31595       -2.51959       -5.07469
H          5.20206       -2.63254       -3.54410
H          4.46931       -4.09018       -4.26131
C          2.01269       -3.67126       -3.30694
H          2.13381       -4.62979       -3.81945
C          3.53970        2.01578       -0.83040
C          2.89249        3.23300       -0.62806
H          1.87950        3.35902       -1.00538
C          4.87040        1.82103       -0.42124
C          5.59159        0.54339       -0.72135
H          5.04641       -0.33273       -0.34223
H          5.70959        0.40613       -1.80854
H          6.59233        0.54608       -0.26918
C          3.54136        4.26335        0.04812
H          3.01967        5.20746        0.21919
C          5.49804        2.87446        0.24985
H          6.52967        2.73662        0.58496
C          4.84535        4.08073        0.49973
H          5.36138        4.88007        1.03609
C          2.91894       -0.82952        1.11090
C          3.35252       -2.08249        0.67861
H          2.84463       -2.57569       -0.14910
C          3.51216       -0.18483        2.21056
C          2.97094        1.12679        2.68458
H          3.06597        1.90322        1.90988
H          1.89785        1.04171        2.91552
H          3.50147        1.46927        3.58313
C          4.43057       -2.69494        1.31705
H          4.77424       -3.67325        0.97318
C          4.58542       -0.82649        2.83251
H          5.06217       -0.33865        3.68710
C          5.05391       -2.06492        2.39075
H          5.89869       -2.54023        2.89432
C         -1.25039        0.43077        3.00216
H         -1.85024        1.34109        2.95061
C         -0.33619       -1.54403        1.94669
H         -0.21027       -2.16633        1.05653
C         -0.62496        0.06302        4.19248
H         -0.73650        0.69113        5.07962
C          0.29359       -1.92384        3.13343
C          1.13930       -3.16088        3.20758
H          0.85661       -3.78825        4.06714
H          1.04930       -3.76536        2.29472
H          2.20327       -2.89821        3.32342
C          0.13803       -1.09874        4.25608
H          0.62890       -1.37432        5.19371
C         -4.07169        1.61222        0.27910
C         -3.69721        2.68959       -0.52129
H         -2.63663        2.87952       -0.68015
C         -5.42171        1.35529        0.57351
C         -5.79592        0.25021        1.51104
H         -5.53098       -0.73464        1.10091
H         -5.25519        0.34588        2.46479
H         -6.87515        0.25983        1.71513
C         -4.67531        3.49735       -1.09870
H         -4.37572        4.33607       -1.73146
C         -6.37895        2.18446       -0.01732
H         -7.43440        1.99571        0.19741
C         -6.02148        3.23837       -0.85759
H         -6.79427        3.86591       -1.30693
C         -3.39046       -1.91367       -0.20794
C         -3.51751       -2.71047        0.92738
H         -2.70418       -2.73974        1.65319
C         -4.41020       -1.82902       -1.16919
C         -4.24684       -0.93910       -2.36229
H         -4.27620        0.12341       -2.06817
H         -3.27667       -1.10593       -2.85344
H         -5.04987       -1.10690       -3.09240
C         -4.68408       -3.44801        1.12033
H         -4.78817       -4.07076        2.01168
C         -5.56454       -2.58746       -0.95408
H         -6.36989       -2.53866       -1.69187
C         -5.70795       -3.38990        0.17712
H         -6.62274       -3.96887        0.32191
