84
Cat539.ts34.5.log	Energy: -2695718.2874024
C          0.40942       -1.83409       -3.47279
H         -0.55949       -1.71948       -3.96653
H          1.27855       -1.52312       -4.05816
C          0.56973       -2.77723       -2.45254
H         -0.27011       -3.42412       -2.17990
H          1.55955       -3.20904       -2.27395
H          0.41035       -2.08825       -0.83152
Co         0.41028       -0.86410       -1.65637
O          2.36162       -1.23809        0.89337
O          3.55216       -1.11757       -1.27205
O          2.49610        1.03585       -0.29610
O         -2.67395       -0.09227       -1.78014
O         -2.13438       -2.22386       -0.47530
O         -1.85640       -0.04635        0.62308
P         -1.48458       -0.75367       -0.82863
P          2.16149       -0.54996       -0.61498
C          0.39533        0.62435       -2.55242
O          0.36881        1.61812       -3.12788
C          1.29624       -1.29796        1.75809
C          0.57711       -2.48843        1.86484
H          0.87717       -3.34835        1.26409
C          0.94121       -0.18588        2.52027
H          1.50622        0.74192        2.42210
C         -0.51885       -2.56212        2.71721
H         -1.11156       -3.47409        2.80411
C         -0.15403       -0.25487        3.37649
H         -0.47435        0.61091        3.95782
C         -0.87625       -1.43740        3.45006
F         -1.96387       -1.49118        4.22481
C          4.82906       -1.15185       -0.75412
C          5.16236       -2.03682        0.26919
H          4.39423       -2.69025        0.68176
C          5.78847       -0.30991       -1.31316
H          5.49511        0.36680       -2.11697
C          6.46648       -2.04401        0.76049
H          6.73025       -2.72975        1.56931
C          7.08667       -0.32554       -0.81313
H          7.83445        0.34749       -1.23856
C          7.42915       -1.18697        0.22933
H          8.44775       -1.19412        0.62329
C          3.64391        1.63352        0.16392
C          4.11655        2.72419       -0.56465
H          3.56745        3.03339       -1.45620
C          4.30271        1.20599        1.31747
H          3.92894        0.34554        1.87138
C          5.27445        3.37710       -0.15045
H          5.64771        4.22851       -0.72463
C          5.46541        1.86192        1.71421
H          5.99449        1.51424        2.60430
C          5.95741        2.94407        0.98571
H          6.87057        3.45101        1.30466
C         -3.51320        0.94568       -1.44894
C         -3.11010        2.25113       -1.73327
H         -2.14126        2.41789       -2.20741
C         -4.74727        0.70081       -0.85037
H         -5.05484       -0.32417       -0.64373
C         -3.92614        3.32179       -1.38565
H         -3.62462        4.35257       -1.57755
C         -5.56947        1.77091       -0.50522
H         -6.53730        1.60932       -0.02738
C         -5.14402        3.06710       -0.76612
F         -5.92401        4.09147       -0.41773
C         -3.44826       -2.42905       -0.13175
C         -4.33143       -2.87183       -1.11560
H         -3.95936       -3.01754       -2.13097
C         -3.88316       -2.21898        1.17709
H         -3.17843       -1.86841        1.92932
C         -5.66685       -3.09710       -0.78837
H         -6.36088       -3.43858       -1.55986
C         -5.22173       -2.44594        1.49155
H         -5.56557       -2.27838        2.51498
C         -6.11732       -2.88052        0.51411
H         -7.16539       -3.05373        0.76786
C         -1.71598        1.27227        0.97012
C         -2.72789        1.82300        1.75591
H         -3.58078        1.19899        2.02651
C         -0.60760        2.03424        0.60224
H          0.19614        1.58678        0.02036
C         -2.63974        3.15336        2.15432
H         -3.44015        3.58628        2.75903
C         -0.53324        3.36588        1.00619
H          0.33730        3.95846        0.71435
C         -1.54599        3.93387        1.77699
H         -1.48294        4.97910        2.08705
