102
Cat569.ts34.5.log	Energy: -2719145.0685830
C         -0.31201       -3.58064       -0.04888
H         -0.54414       -4.21672       -0.90655
H          0.62594       -3.83614        0.45426
C         -1.37572       -3.02796        0.70457
H         -2.40859       -3.16615        0.36974
H         -1.27218       -2.96660        1.79432
H         -0.91032       -1.43206        0.88958
Co        -0.51195       -1.62705       -0.52357
O          2.10573       -1.42967        1.38640
O          2.59647       -1.72295       -1.01941
O          1.76942        0.58080       -0.16284
O         -1.63619        0.85375       -2.10067
O         -3.31115       -0.04553       -0.38274
O         -1.40762        1.29352        0.38291
P         -1.68041        0.05767       -0.65967
P          1.43193       -1.03523       -0.09784
C         -0.52543       -2.02527       -2.22694
O         -0.50671       -2.28321       -3.34502
C          1.40741       -1.36122        2.55817
C          0.54961       -0.29773        2.84873
H          0.40027        0.50036        2.11829
C          1.61296       -2.40704        3.47369
C          2.54079       -3.53072        3.12886
H          2.23756       -4.02720        2.19390
H          3.56685       -3.16511        2.96524
H          2.56538       -4.28236        3.92927
C         -0.11785       -0.26778        4.07350
H         -0.78323        0.56866        4.29812
C          0.93048       -2.34817        4.69071
H          1.07957       -3.15442        5.41423
C          0.07009       -1.29304        4.99585
H         -0.44864       -1.27230        5.95677
C          3.92728       -1.41313       -1.16662
C          4.80400       -1.34160       -0.08511
H          4.43281       -1.53492        0.92056
C          4.39009       -1.19039       -2.46088
H          3.68750       -1.27651       -3.29199
C          6.12800       -0.97907       -0.30803
H          6.80372       -0.89726        0.54785
C          5.72210       -0.84284       -2.66583
H          6.07511       -0.65926       -3.68449
C          6.61127       -0.70975       -1.59400
C          8.02652       -0.25734       -1.80711
H          8.11544        0.83315       -1.66351
H          8.37581       -0.48254       -2.82510
H          8.71633       -0.73560       -1.09601
C          2.95765        1.22567        0.10207
C          3.68332        1.74797       -0.96646
H          3.30115        1.61859       -1.97982
C          3.41262        1.39267        1.40704
H          2.82575        1.01147        2.24301
C          4.89552        2.38357       -0.72889
H          5.46907        2.76912       -1.57624
C          4.62897        2.03531        1.62744
H          4.98711        2.15286        2.65395
C          5.40079        2.52565        0.56975
C          6.74255        3.15430        0.80972
H          6.93412        3.98050        0.10896
H          7.55172        2.41684        0.67227
H          6.82883        3.54761        1.83280
C         -2.10169        2.13982       -2.26923
C         -3.46777        2.38433       -2.37583
H         -4.16595        1.54925       -2.30807
C         -1.15325        3.17058       -2.34380
C          0.30348        2.85958       -2.20636
H          0.52027        2.41799       -1.22212
H          0.61850        2.11400       -2.95300
H          0.91601        3.76286       -2.32891
C         -3.91785        3.69118       -2.55132
H         -4.98923        3.88883       -2.62853
C         -1.63370        4.47082       -2.52776
H         -0.91418        5.29179       -2.58950
C         -2.99975        4.73614       -2.62581
H         -3.34582        5.76296       -2.76437
C         -4.05256       -1.13584       -0.74669
C         -4.91836       -1.68114        0.20023
H         -4.96826       -1.22441        1.19047
C         -3.96515       -1.69411       -2.02111
H         -3.29722       -1.25685       -2.76545
C         -5.68839       -2.79088       -0.13062
H         -6.36273       -3.21453        0.61896
C         -4.73549       -2.81342       -2.33057
H         -4.65137       -3.25296       -3.32812
C         -5.60868       -3.38310       -1.39848
C         -6.45682       -4.57115       -1.74962
H         -7.48184       -4.26294       -2.01561
H         -6.53789       -5.27210       -0.90543
H         -6.04542       -5.11943       -2.60896
C         -2.29929        1.91622        1.22498
C         -2.83861        1.23199        2.31201
H         -2.58880        0.18033        2.46280
C         -2.61287        3.25427        1.00920
H         -2.19522        3.76882        0.14221
C         -3.69256        1.89851        3.18606
H         -4.11655        1.35430        4.03479
C         -3.46586        3.90613        1.89562
H         -3.71157        4.95661        1.71708
C         -4.02018        3.24679        2.99884
C         -4.91525        3.96947        3.96372
H         -5.51724        4.73773        3.45656
H         -4.32740        4.47993        4.74519
H         -5.60316        3.27814        4.47173
