100
Cat525.ts34.5.log	Energy: -2420454.3236285
C          1.19387        2.26143       -2.67238
H          0.99855        3.33701       -2.67092
H          2.25233        1.99923       -2.78081
C          0.22250        1.38872       -3.22904
H         -0.72456        1.79989       -3.59365
H          0.57389        0.53664       -3.82212
H          0.04549        0.18863       -2.10170
Co         0.20512        1.34165       -1.17948
O          2.60916       -0.61333       -1.65143
C          3.27435        1.33163        0.21469
C          1.68624       -0.96438        0.91696
O         -1.39495       -0.89179        0.34914
C         -2.69209        1.49059        0.64404
C         -2.80550        0.01834       -1.83476
P         -1.62469        0.55507       -0.52345
P          1.88581        0.28861       -0.40798
C          0.14318        2.79949       -0.25044
O          0.15538        3.74515        0.41442
C          3.87195       -1.11479       -1.62986
C          4.12982       -2.37707       -1.08625
H          3.30014       -2.96084       -0.68460
C          4.92006       -0.37649       -2.18794
H          4.70160        0.59396       -2.63741
C          5.42912       -2.87712       -1.05731
H          5.65303       -3.85717       -0.63207
C          6.22117       -0.86982       -2.16124
H          7.05411       -0.30497       -2.58384
C          6.46230       -2.11188       -1.58520
F          7.70845       -2.58532       -1.55195
H          3.68024        1.83271       -0.68097
H          2.77803        2.13644        0.78393
C          4.39145        0.70833        1.04354
H          3.99293        0.39308        2.02281
H          4.77026       -0.20731        0.56448
C          5.55931        1.66026        1.25995
H          5.20062        2.58470        1.74853
H          5.95259        1.97440        0.27567
C          6.68883        1.05213        2.07910
H          6.29384        0.73291        3.06001
H          7.03349        0.12838        1.58122
C          7.86420        1.99422        2.28217
H          8.66411        1.52537        2.87507
H          7.55503        2.91235        2.80738
H          8.30129        2.29996        1.31786
H          0.99342       -1.71271        0.50164
H          2.64445       -1.46148        1.13702
C          1.07705       -0.34485        2.16934
H          1.82352        0.28392        2.68589
H          0.26312        0.33324        1.86380
C          0.51632       -1.37717        3.13526
H          1.32630       -2.04120        3.48819
H         -0.18983       -2.02522        2.58787
C         -0.19634       -0.76154        4.33049
H          0.51361       -0.13745        4.90165
H         -0.96961       -0.06294        3.96194
C         -0.83367       -1.79250        5.24768
H         -1.34367       -1.32105        6.10160
H         -0.07965       -2.48630        5.65292
H         -1.57703       -2.39896        4.70497
C         -2.33616       -1.81025        0.68631
C         -2.53841       -2.92502       -0.13400
H         -1.94189       -3.02595       -1.04248
C         -3.06285       -1.68854        1.87532
H         -2.87159       -0.83840        2.53158
C         -3.48853       -3.88441        0.20297
H         -3.66572       -4.75737       -0.42790
C         -4.01320       -2.64653        2.21954
H         -4.59184       -2.56770        3.14172
C         -4.22304       -3.72880        1.37322
F         -5.13592       -4.64419        1.69746
H         -3.52690        0.84695        0.96517
H         -2.07136        1.68610        1.53514
C         -3.22213        2.80122        0.07492
H         -2.38223        3.42867       -0.26156
H         -3.82888        2.60172       -0.82554
C         -4.05966        3.58163        1.07865
H         -3.45016        3.78113        1.97855
H         -4.90522        2.95639        1.41979
C         -4.59124        4.89720        0.52778
H         -3.74054        5.51334        0.18749
H         -5.19313        4.69409       -0.37597
C         -5.42258        5.67978        1.53118
H         -5.79166        6.62469        1.10453
H         -4.83407        5.92811        2.42904
H         -6.29903        5.10011        1.86341
H         -2.75317        0.80337       -2.60730
H         -2.32867       -0.86507       -2.29398
C         -4.25725       -0.27425       -1.47224
H         -4.31649       -0.90395       -0.57166
H         -4.77290        0.66640       -1.21584
C         -5.01108       -0.96931       -2.59734
H         -4.48890       -1.91007       -2.85116
H         -4.97226       -0.34859       -3.51121
C         -6.45987       -1.27930       -2.24882
H         -6.48223       -1.89528       -1.33230
H         -6.97931       -0.33959       -1.98971
C         -7.21112       -1.98996       -3.36268
H         -8.25310       -2.20222       -3.07942
H         -6.73371       -2.95026       -3.61615
H         -7.23332       -1.38232       -4.28171
