82
Cat555.ts34.5.log	Energy: -2148061.8792603
C         -1.75023        3.34356       -0.58550
H         -2.66970        3.68427       -0.10129
H         -0.92232        4.05121       -0.49139
C         -1.85941        2.57907       -1.77773
H         -2.85215        2.30198       -2.14672
H         -1.16221        2.79429       -2.59744
H         -0.82359        1.32125       -1.55605
Co        -1.36406        1.40546       -0.17893
O          1.36257        0.04982       -0.64164
C          1.69943        2.83201       -0.38371
C          1.40125        1.02970        1.98763
O         -1.31902       -1.90973        0.24402
C         -3.77192       -0.95513       -0.29433
C         -1.48713       -1.24983       -2.28571
P         -1.97113       -0.59855       -0.60820
P          0.75588        1.34984        0.26155
C         -2.34744        1.58317        1.23006
O         -3.01605        1.72739        2.16364
C          2.58050       -0.49859       -0.89333
C          3.30649       -1.16954        0.09148
H          2.89710       -1.23496        1.09917
C          3.02983       -0.48341       -2.22811
C          2.19813        0.16277       -3.29382
H          2.74001        0.20301       -4.24849
H          1.26203       -0.39547       -3.45570
H          1.90047        1.18575       -3.01733
C          4.51760       -1.78047       -0.22568
H          5.07971       -2.29935        0.55455
C          4.24744       -1.10325       -2.51904
H          4.61054       -1.08688       -3.55048
C          4.99840       -1.73974       -1.53166
H          5.94810       -2.21468       -1.78695
H          1.13927        3.04321       -1.31306
C          1.48550        4.01389        0.56390
H          1.68616        4.96131        0.03909
H          0.46104        4.05700        0.95943
H          2.17297        3.96384        1.42043
C          3.17249        2.69672       -0.75370
H          3.36496        1.88208       -1.46117
H          3.51272        3.63329       -1.22618
H          3.80702        2.52758        0.12549
H          1.18396       -0.04776        2.08904
C          2.88393        1.26047        2.27154
H          3.13981        0.80271        3.24130
H          3.55141        0.82785        1.51725
H          3.11462        2.33266        2.35351
C          0.55791        1.75499        3.03360
H         -0.51463        1.57022        2.90959
H          0.84340        1.40001        4.03637
H          0.72166        2.84257        3.00923
C         -0.73150       -1.91896        1.46302
C         -1.27228       -1.25583        2.56488
H         -2.19607       -0.68839        2.45888
C          0.43429       -2.69932        1.59397
C          0.94983       -3.46847        0.41847
H          0.25427       -4.28010        0.14921
H          1.04818       -2.82256       -0.46498
H          1.93046       -3.91361        0.63214
C         -0.63606       -1.32536        3.80330
H         -1.06553       -0.79583        4.65658
C          1.05496       -2.74513        2.84401
H          1.96506       -3.34179        2.95424
C          0.53802       -2.05890        3.94469
H          1.04489       -2.11164        4.91065
H         -3.81535       -0.77649        0.79629
C         -4.67787        0.07939       -0.95214
H         -5.70608       -0.01884       -0.57006
H         -4.33018        1.10096       -0.74221
H         -4.71897       -0.04993       -2.04414
C         -4.22960       -2.38329       -0.55252
H         -3.52562       -3.11706       -0.13601
H         -5.21458       -2.55273       -0.08829
H         -4.34085       -2.58174       -1.62903
H         -0.43133       -0.92630       -2.28699
C         -1.51123       -2.76167       -2.47870
H         -0.94741       -3.01628       -3.39103
H         -1.05232       -3.28891       -1.63502
H         -2.53257       -3.14459       -2.61020
C         -2.20640       -0.54275       -3.42858
H         -2.19396        0.54967       -3.32806
H         -1.72041       -0.79573       -4.38447
H         -3.25519       -0.86832       -3.50469
