84
Cat599.ts34.5.log	Energy: -3396846.3628320
C         -1.14036        0.92928       -4.07360
H         -1.04132        0.26111       -4.93254
H         -2.13999        1.36146       -3.96312
C         -0.00821        1.66208       -3.63799
H          0.96872        1.48351       -4.09690
H         -0.14319        2.69938       -3.31027
H         -0.02384        1.45634       -2.00489
Co        -0.39480        0.07415       -2.40401
O         -2.63967        1.54805       -0.54538
O         -3.51924       -0.32003       -1.91592
O         -2.03273       -0.84519        0.13588
O          1.71478       -1.78683       -0.89960
O          2.61259        0.50603       -1.61316
O          1.05097        0.32859        0.37276
P          1.21189       -0.23775       -1.16378
P         -2.10015        0.10620       -1.21949
C         -0.34519       -1.48856       -3.19130
O         -0.32333       -2.51943       -3.69321
C         -1.74898        2.45355       -0.03782
C         -1.51022        3.63202       -0.74603
H         -2.03095        3.79580       -1.69154
C         -1.09853        2.22017        1.17413
H         -1.27346        1.28869        1.71390
C         -0.62376        4.58088       -0.24513
H         -0.43123        5.50741       -0.78825
C         -0.20886        3.16336        1.67813
H          0.31514        2.98180        2.61766
C          0.02423        4.33807        0.96579
Cl         1.13390        5.51715        1.59034
C         -4.79073       -0.31610       -1.38696
C         -5.47022        0.87943       -1.16069
H         -4.97944        1.82534       -1.38661
C         -5.40183       -1.54061       -1.12159
H         -4.85228       -2.46150       -1.32064
C         -6.75436        0.84909       -0.62244
H         -7.30869        1.76837       -0.42528
C         -6.68333       -1.57439       -0.58351
H         -7.17814       -2.51851       -0.35011
C         -7.34164       -0.37579       -0.33165
F         -8.56584       -0.40327        0.19315
C         -3.02155       -1.23396        1.00614
C         -3.14352       -2.60093        1.25393
H         -2.47760       -3.29206        0.73352
C         -3.85400       -0.32110        1.65666
H         -3.75823        0.74484        1.45402
C         -4.11699       -3.06656        2.13301
H         -4.23688       -4.13166        2.33884
C         -4.83567       -0.78572        2.52633
H         -5.51380       -0.09601        3.03150
C         -4.95889       -2.15145        2.75289
F         -5.90118       -2.59211        3.58439
C          3.01208       -2.22801       -0.83381
C          3.57232       -2.56398        0.39736
H          2.97997       -2.45995        1.30648
C          3.75016       -2.36951       -2.00895
H          3.28933       -2.11244       -2.96394
C          4.88602       -3.02001        0.45666
H          5.33828       -3.28018        1.41476
C          5.06460       -2.82174       -1.95246
H          5.65567       -2.92964       -2.86309
C          5.63013       -3.13811       -0.71664
Cl         7.27056       -3.68792       -0.64092
C          3.44092        1.25254       -0.80883
C          4.69979        0.75990       -0.47028
H          5.00822       -0.22234       -0.82954
C          3.02614        2.50811       -0.36311
H          2.03342        2.87547       -0.62825
C          5.54684        1.52357        0.32945
H          6.53731        1.16165        0.61047
C          3.86672        3.27090        0.44252
H          3.55107        4.24591        0.81690
C          5.11815        2.76674        0.78025
F          5.92529        3.49281        1.55234
C          1.37281       -0.27290        1.55993
C          2.42444        0.23362        2.32328
H          3.00360        1.07764        1.94822
C          0.61110       -1.34742        2.02088
H         -0.21402       -1.71052        1.40836
C          2.72916       -0.35204        3.54947
H          3.54887        0.02056        4.16613
C          0.91750       -1.93661        3.24441
H          0.33930       -2.77885        3.62833
C          1.97609       -1.43343        3.99304
F          2.27069       -1.99553        5.16385
