90
Cat512.ts34.5.log	Energy: -2869509.0883478
C          0.25585       -2.21533       -3.41533
H         -0.69831       -2.11537       -3.93992
H          1.14665       -1.98433       -4.00514
C          0.36437       -3.07156       -2.31406
H         -0.50099       -3.66746       -2.00722
H          1.33569       -3.51751       -2.07789
H          0.20786       -2.24654       -0.77039
Co         0.25010       -1.09211       -1.69096
O          2.15860       -1.30051        0.91026
O          3.36675       -1.43562       -1.24103
O          2.40086        0.84612       -0.47635
O         -2.82501       -0.26697       -1.90002
O         -2.32956       -2.28503       -0.42003
O         -1.99793       -0.02780        0.49103
P         -1.64727       -0.86327       -0.89666
P          1.99535       -0.74983       -0.65314
C          0.29180        0.31296       -2.71170
O          0.30765        1.25308       -3.37145
C          1.10776       -1.19561        1.79267
C          0.33393       -2.31983        2.06609
H          0.56524       -3.26236        1.56691
C          0.83225        0.01665        2.42346
H          1.43748        0.89579        2.19837
C         -0.72411       -2.22282        2.96616
H         -1.33185       -3.10844        3.16992
C         -0.23053        0.09869        3.31567
H         -0.45364        1.05937        3.78730
C         -1.03328       -1.01319        3.59711
C         -2.20284       -0.89161        4.53037
H         -1.89021       -0.53988        5.52608
H         -2.71859       -1.85359        4.66076
H         -2.93524       -0.16133        4.14837
C          4.63236       -1.50168       -0.70121
C          4.89965       -2.28246        0.42198
H          4.08818       -2.83069        0.89890
C          5.65624       -0.80150       -1.33777
H          5.42158       -0.20588       -2.22084
C          6.19333       -2.32630        0.93627
H          6.43177       -2.92079        1.82002
C          6.94857       -0.84357       -0.82688
H          7.76417       -0.29035       -1.29537
C          7.19995       -1.60074        0.31179
F          8.43514       -1.63630        0.81089
C          3.60327        1.39719       -0.10625
C          4.16875        2.33000       -0.97414
H          3.64170        2.57178       -1.89899
C          4.23813        1.06980        1.09343
H          3.79353        0.33311        1.76171
C          5.38945        2.92103       -0.66136
H          5.85679        3.65039       -1.32529
C          5.46330        1.65199        1.40313
H          5.99250        1.39816        2.32301
C          6.02712        2.56632        0.52132
F          7.20290        3.11792        0.81772
C         -3.62020        0.83305       -1.66788
C         -3.16696        2.08940       -2.07079
H         -2.19771        2.17241       -2.56635
C         -4.85755        0.69947       -1.04758
H         -5.20885       -0.28843       -0.74912
C         -3.93799        3.21457       -1.80821
H         -3.56534        4.19761       -2.10846
C         -5.62157        1.83852       -0.79680
H         -6.58925        1.72871       -0.29944
C         -5.17380        3.11338       -1.15472
C         -5.97213        4.34333       -0.83537
H         -5.46302        4.95451       -0.07179
H         -6.96967        4.08924       -0.45038
H         -6.10306        4.98130       -1.72305
C         -3.63438       -2.41546       -0.01694
C         -4.57330       -2.91259       -0.91939
H         -4.25466       -3.15952       -1.93311
C         -4.01042       -2.07630        1.28309
H         -3.25512       -1.68418        1.96255
C         -5.89993       -3.06941       -0.52526
H         -6.65683       -3.45343       -1.21124
C         -5.33586       -2.22860        1.67987
H         -5.66023       -1.97013        2.68958
C         -6.26515       -2.72171        0.77026
F         -7.53390       -2.86698        1.15037
C         -1.83596        1.31179        0.72557
C         -2.84932        1.95243        1.43780
H         -3.72735        1.37802        1.73548
C         -0.70545        2.01918        0.31759
H          0.10057        1.50897       -0.20712
C         -2.74654        3.30906        1.72635
H         -3.53249        3.83477        2.27149
C         -0.60341        3.37885        0.60027
H          0.27156        3.95155        0.28762
C         -1.62609        4.01044        1.29590
F         -1.53116        5.31477        1.56208
