90
Cat570.ts34.5.log	Energy: -2869512.6208998
C         -0.23825       -3.58393       -0.11075
H         -0.47077       -4.20324       -0.98043
H          0.70925       -3.83641        0.37551
C         -1.30013       -3.06471        0.66746
H         -2.33464       -3.21224        0.34205
H         -1.18406       -3.02570        1.75692
H         -0.85569       -1.46429        0.88341
Co        -0.47207       -1.62167       -0.53801
O          2.16591       -1.41035        1.34606
O          2.63024       -1.65204       -1.07080
O          1.77414        0.61775       -0.16196
O         -1.65524        0.87511       -2.04420
O         -3.29986       -0.09944       -0.33825
O         -1.41810        1.25327        0.45322
P         -1.67183        0.04245       -0.62506
P          1.46428       -1.00581       -0.12043
C         -0.49110       -1.98164       -2.25068
O         -0.47574       -2.21145       -3.37446
C          1.47309       -1.40057        2.52493
C          0.59444       -0.36666        2.85646
H          0.42281        0.45237        2.15449
C          1.70739       -2.47319        3.40107
C          2.65938       -3.56237        3.01411
H          2.37529       -4.02082        2.05424
H          3.68016       -3.17066        2.87982
H          2.69118       -4.34935        3.77934
C         -0.06567       -0.39375        4.08534
H         -0.74493        0.42093        4.34568
C          1.03030       -2.47196        4.62274
H          1.20080       -3.29940        5.31682
C          0.14963       -1.44700        4.96944
H         -0.36281       -1.47094        5.93357
C          3.95331       -1.31998       -1.22691
C          4.84303       -1.26752       -0.15329
H          4.48382       -1.48420        0.85202
C          4.39278       -1.05950       -2.52393
H          3.67612       -1.12573       -3.34449
C          6.16716       -0.90316       -0.37698
H          6.88046       -0.83171        0.44579
C          5.71990       -0.70757       -2.75132
H          6.08888       -0.49324       -3.75585
C          6.58943       -0.62203       -1.67097
F          7.85729       -0.26909       -1.88095
C          2.94456        1.28416        0.12179
C          3.65755        1.85129       -0.93400
H          3.28479        1.72823       -1.95150
C          3.38799        1.43283        1.43482
H          2.81202        1.00886        2.25739
C          4.84307        2.53329       -0.68554
H          5.42962        2.96945       -1.49570
C          4.57511        2.11635        1.68745
H          4.95031        2.24177        2.70459
C          5.29276        2.65007        0.62506
F          6.43320        3.29523        0.86678
C         -2.14832        2.15607       -2.17927
C         -3.51980        2.37484       -2.27069
H         -4.20150        1.52507       -2.21998
C         -1.22116        3.20690       -2.23617
C          0.24300        2.92274       -2.11998
H          0.47822        2.45785       -1.15086
H          0.56625        2.20628       -2.89127
H          0.83486        3.84213       -2.22211
C         -3.99753        3.67617       -2.41088
H         -5.07310        3.85379       -2.47669
C         -1.72924        4.50138       -2.38426
H         -1.02715        5.33813       -2.43206
C         -3.10113        4.74106       -2.46565
H         -3.46886        5.76359       -2.57682
C         -4.02792       -1.17880       -0.75537
C         -4.89377       -1.77220        0.16319
H         -4.95236       -1.36088        1.17236
C         -3.93144       -1.67270       -2.05784
H         -3.26643       -1.19243       -2.77766
C         -5.66307       -2.86829       -0.21482
H         -6.34987       -3.35019        0.48316
C         -4.69137       -2.77783       -2.43445
H         -4.62935       -3.18821       -3.44374
C         -5.54669       -3.36304       -1.50949
F         -6.27534       -4.41823       -1.87042
C         -2.32519        1.84520        1.30001
C         -2.84140        1.13247        2.38174
H         -2.55632        0.08859        2.52238
C         -2.67283        3.17801        1.09660
H         -2.26608        3.71316        0.23713
C         -3.71292        1.75678        3.26941
H         -4.13378        1.22410        4.12409
C         -3.54133        3.80648        1.98536
H         -3.83172        4.84961        1.84968
C         -4.05195        3.08881        3.05975
F         -4.88594        3.68871        3.90901
