86
Cat500.ts34.5.log	Energy: -2336840.3629370
C          1.35711       -1.54396        3.11545
H          2.17006       -2.23369        2.87012
H          1.58034       -0.86125        3.93922
C          0.01535       -1.92345        2.89114
H         -0.19372       -2.95480        2.58509
H         -0.79191       -1.47337        3.47604
H         -0.25711       -1.68195        1.25581
Co         0.63399       -0.52590        1.51448
O         -1.60699       -0.14985       -0.68483
O         -2.41362        0.01254        1.72803
O         -1.32947        1.98093        0.71817
O          2.25326       -0.48147       -1.38484
O          3.42163       -1.66693        0.55744
O          1.59384       -2.73322       -0.70061
P          1.92122       -1.31536        0.04588
P         -1.10884        0.36610        0.83324
C          1.37682        0.89631        2.17782
O          1.88347        1.82095        2.64276
C         -2.91430       -0.35264       -1.03368
C         -3.43546       -1.64607       -0.98246
H         -2.79739       -2.45732       -0.62865
C         -3.72253        0.70075       -1.45837
H         -3.31132        1.70968       -1.49190
C         -4.75455       -1.87925       -1.35763
H         -5.15173       -2.89702       -1.30737
C         -5.04387        0.45337       -1.82478
H         -5.67042        1.28842       -2.15055
C         -5.58583       -0.83609       -1.78557
C         -7.00079       -1.09977       -2.21235
H         -7.62409       -0.19874       -2.12054
H         -7.46195       -1.89614       -1.60973
H         -7.04403       -1.42272       -3.26611
C         -3.52268        0.87681        2.03223
H         -3.62998        1.61064        1.21923
C         -3.22687        1.60919        3.32532
H         -2.31747        2.21695        3.21954
H         -3.07905        0.89211        4.14765
H         -4.06109        2.27600        3.59118
C         -4.75838        0.00698        2.09562
H         -4.93579       -0.48554        1.12960
H         -4.64167       -0.76825        2.86847
H         -5.63973        0.61688        2.34431
C         -0.39104        2.84093        0.05248
H          0.55154        2.28607       -0.09647
C         -0.13314        4.02732        0.95495
H          0.27757        3.69951        1.91914
H         -1.06687        4.58226        1.13655
H          0.59439        4.70632        0.48625
C         -0.95772        3.23191       -1.29677
H         -1.07845        2.34762       -1.93768
H         -1.93616        3.72208       -1.17020
H         -0.28019        3.93083       -1.80634
C          2.48349        0.85544       -1.42783
C          1.99646        1.56759       -2.52733
H          1.44188        1.02702       -3.29661
C          3.19944        1.52787       -0.43488
H          3.60500        0.97316        0.41220
C          2.21619        2.93630       -2.61994
H          1.83258        3.47864       -3.48914
C          3.38332        2.90642       -0.52871
H          3.92240        3.42127        0.27092
C          2.89733        3.63857       -1.61535
C          3.08218        5.12581       -1.70727
H          3.55892        5.41608       -2.65672
H          3.70780        5.50395       -0.88667
H          2.11531        5.65422       -1.65872
C          4.40555       -2.30226       -0.27782
H          4.03765       -2.29290       -1.31693
C          4.56743       -3.73563        0.18313
H          3.60822       -4.26459        0.10038
H          4.89925       -3.76547        1.23264
H          5.31372       -4.26006       -0.43287
C          5.67711       -1.48601       -0.18727
H          5.50893       -0.46228       -0.55141
H          6.02419       -1.43220        0.85616
H          6.47222       -1.94237       -0.79585
C          0.36788       -2.87651       -1.43080
H         -0.25831       -1.98494       -1.25023
C         -0.34624       -4.10014       -0.89603
H         -0.58876       -3.97228        0.16955
H          0.29254       -4.99111       -0.99761
H         -1.28097       -4.27912       -1.44836
C          0.69101       -2.96257       -2.90816
H          1.23248       -2.06109       -3.22569
H          1.32312       -3.84054       -3.11409
H         -0.23202       -3.04877       -3.50127
