110
Cat559.ts34.5.log	Energy: -2440870.6103480
C         -0.91270        1.02095       -3.26601
H         -0.53726        0.46098       -4.12688
H         -1.99175        1.20115       -3.29119
C         -0.06713        1.98061       -2.66555
H          0.94661        2.11803       -3.05238
H         -0.51177        2.91635       -2.30601
H         -0.03231        1.65245       -1.01869
Co        -0.17836        0.26997       -1.53027
O         -2.27961        1.69024        0.54609
C         -3.55636        0.28792       -1.19966
C         -2.07837       -1.00949        1.07305
O          1.62962       -0.78113        1.02599
C          2.95304       -0.95921       -1.41180
C          2.47472        1.51186        0.25364
P          1.66291        0.01327       -0.48549
P         -1.94083        0.24762       -0.28993
C         -0.13718       -1.27425       -2.29626
O         -0.12259       -2.30612       -2.82133
C         -1.40529        2.41750        1.27724
C         -0.49259        1.84038        2.16296
H         -0.40449        0.75582        2.21958
C         -1.49079        3.81761        1.15037
C         -2.46094        4.40933        0.17551
H         -2.28724        4.02064       -0.84047
H         -3.49734        4.14053        0.43420
H         -2.38088        5.50456        0.14937
C          0.31428        2.64936        2.96176
H          1.01829        2.18413        3.65611
C         -0.66594        4.60389        1.95666
H         -0.72903        5.69198        1.86723
C          0.22747        4.03475        2.86574
H          0.85692        4.67344        3.48905
H         -3.42939        1.24690       -1.74021
C         -4.83379        0.41870       -0.37147
H         -4.71299        1.19986        0.39306
H         -5.02493       -0.52931        0.15974
C         -6.02526        0.72482       -1.27530
H         -6.94671        0.79757       -0.67465
H         -5.87844        1.71697       -1.73983
C         -6.18431       -0.32635       -2.36866
H         -7.02039       -0.06406       -3.03723
H         -6.45196       -1.29217       -1.90238
C         -4.89726       -0.50204       -3.16808
H         -4.69017        0.42354       -3.73602
H         -5.01460       -1.30350       -3.91530
C         -3.70828       -0.80427       -2.26073
H         -3.86844       -1.77871       -1.77206
H         -2.78539       -0.90276       -2.84977
H         -1.03013       -1.09506        1.41285
C         -2.46679       -2.39125        0.54013
H         -1.83900       -2.66667       -0.32266
H         -3.50992       -2.36202        0.18209
C         -2.34719       -3.44423        1.63675
H         -2.65829       -4.42711        1.24689
H         -1.28786       -3.54462        1.91929
C         -3.16180       -3.07384        2.86973
H         -3.01789       -3.82743        3.66105
H         -4.23879       -3.08664        2.61969
C         -2.78730       -1.68710        3.37994
H         -1.73949       -1.70074        3.73191
H         -3.40623       -1.41317        4.24993
C         -2.93329       -0.63468        2.28488
H         -3.99154       -0.56628        1.98925
H         -2.65791        0.35877        2.66695
C          1.39392       -2.07604        1.33110
C          1.14896       -3.07807        0.38864
H          1.08304       -2.83635       -0.66982
C          1.43169       -2.38846        2.70694
C          1.65716       -1.29803        3.70847
H          2.58599       -0.74599        3.49695
H          0.84237       -0.55635        3.68111
H          1.71432       -1.70384        4.72756
C          0.99345       -4.40174        0.79924
H          0.81086       -5.17284        0.04739
C          1.26884       -3.72090        3.08718
H          1.30960       -3.96794        4.15174
C          1.06246       -4.73262        2.14826
H          0.94311       -5.76811        2.47312
H          2.35535       -1.77448       -1.85577
C          4.10499       -1.61974       -0.65478
H          3.72817       -2.21279        0.19106
H          4.77242       -0.85498       -0.23195
C          4.90652       -2.50614       -1.60513
H          5.74571       -2.97420       -1.06545
H          4.26310       -3.33349       -1.95548
C          5.42028       -1.71892       -2.80642
H          5.96769       -2.38178       -3.49606
H          6.14975       -0.96541       -2.45687
C          4.28664       -1.01064       -3.54091
H          3.61900       -1.76297       -3.99777
H          4.68432       -0.40270       -4.36983
C          3.46789       -0.13660       -2.59618
H          4.09782        0.69087       -2.22590
H          2.61675        0.31960       -3.12802
H          1.72347        1.75162        1.02574
C          2.56862        2.74094       -0.65080
H          1.59985        2.93995       -1.12312
H          3.29139        2.56099       -1.46544
C          2.99405        3.97000        0.14959
H          3.09251        4.83605       -0.52514
H          2.18848        4.21752        0.86225
C          4.29107        3.74099        0.91526
H          4.53992        4.62642        1.52283
H          5.12245        3.61348        0.19768
C          4.19849        2.49813        1.79194
H          3.44484        2.66261        2.58248
H          5.15678        2.31382        2.30473
C          3.80342        1.27427        0.97070
H          4.59506        1.08557        0.22583
H          3.73936        0.38133        1.60864
