90
Cat572.ts34.5.log	Energy: -3773821.5664578
C          0.42293       -2.76758       -2.93548
H          0.52776       -2.68422       -4.01996
H          1.26533       -3.26957       -2.44988
C         -0.87382       -2.89660       -2.37587
H         -1.74444       -2.83208       -3.03620
H         -1.01459       -3.58448       -1.53347
H         -0.84309       -1.81841       -1.10639
Co        -0.12129       -1.00815       -2.11469
O          2.04710       -2.18460       -0.01159
O          2.98633       -0.74360       -1.78427
O          1.69807        0.34143        0.18349
O         -1.02333        1.94054       -2.04115
O         -3.02741        0.54197       -1.79011
O         -1.42769        0.70090        0.19321
P         -1.40412        0.46808       -1.44363
P          1.58434       -0.86686       -0.93989
C          0.25940       -0.19550       -3.62631
O          0.56762        0.32550       -4.59874
C          1.14957       -2.97068        0.65489
C          0.07728       -2.42550        1.36492
H         -0.06934       -1.34300        1.38222
C          1.37335       -4.35695        0.61497
C          2.54559       -4.90776       -0.13650
H          2.52750       -4.60034       -1.19359
H          3.49513       -4.53474        0.27870
H          2.55977       -6.00499       -0.09578
C         -0.79853       -3.27352        2.04292
H         -1.62868       -2.84944        2.61237
C          0.47675       -5.17852        1.30241
H          0.63520       -6.26007        1.28046
C         -0.60403       -4.65128        2.00896
H         -1.28683       -5.31752        2.54036
C          4.24377       -0.40047       -1.35915
C          4.90679       -1.10151       -0.35131
H          4.42088       -1.95754        0.11551
C          4.85462        0.68514       -1.98440
H          4.32079        1.19901       -2.78597
C          6.15361       -0.66446        0.08238
H          6.66705       -1.17551        0.89800
C          6.10907        1.11376       -1.56301
H          6.59196        1.97248       -2.03196
C          6.74308        0.44940       -0.51434
Cl         8.27120        1.02296        0.06548
C          2.69047        0.57513        1.10606
C          3.52529        1.67639        0.91931
H          3.37765        2.31294        0.04661
C          2.84677       -0.24584        2.22150
H          2.17147       -1.08608        2.38237
C          4.56390        1.92125        1.80883
H          5.24801        2.75609        1.65107
C          3.88392       -0.00029        3.11729
H          4.02855       -0.64450        3.98590
C          4.74873        1.06970        2.89798
Cl         6.07123        1.34182        3.98256
C         -1.54986        3.14687       -1.63961
C         -2.80667        3.54811       -2.08441
H         -3.36762        2.88556       -2.74344
C         -0.76111        3.95417       -0.80699
C          0.58716        3.48238       -0.36283
H          0.50916        2.55651        0.22645
H          1.22008        3.23984       -1.23080
H          1.09405        4.24480        0.24350
C         -3.31929        4.77472       -1.66760
H         -4.30725        5.09328       -2.00773
C         -1.29920        5.18280       -0.41026
H         -0.70643        5.82867        0.24284
C         -2.56720        5.59039       -0.82398
H         -2.96352        6.55311       -0.49365
C         -4.03916       -0.20145       -1.24607
C         -5.17120        0.48515       -0.80500
H         -5.20375        1.57075       -0.90661
C         -3.96676       -1.58814       -1.12691
H         -3.08809       -2.11624       -1.49174
C         -6.20685       -0.20631       -0.19048
H         -7.07796        0.32516        0.19535
C         -5.00371       -2.28379       -0.51037
H         -4.94922       -3.36720       -0.39320
C         -6.11116       -1.58936       -0.03018
Cl        -7.37540       -2.44697        0.78727
C         -2.49707        0.91047        1.03209
C         -3.04346       -0.18931        1.69421
H         -2.62320       -1.17868        1.51378
C         -3.01514        2.18573        1.24041
H         -2.57035        3.04513        0.73975
C         -4.14899       -0.03013        2.51957
H         -4.61016       -0.88978        3.00773
C         -4.12068        2.35088        2.07162
H         -4.54767        3.34254        2.22840
C         -4.69351        1.24269        2.69116
Cl        -6.11057        1.44056        3.66759
