96
Cat542.ts34.5.log	Energy: -2794329.3166662
C          0.86700        1.37842        3.65771
H          0.18437        1.01306        4.42934
H          1.92956        1.30245        3.90003
C          0.41909        2.32596        2.73674
H         -0.61040        2.69259        2.78951
H          1.13019        3.03528        2.30251
H          0.39595        1.65461        1.01555
Co         0.44068        0.44725        1.86072
O          2.69695        1.10602       -0.42447
O          3.46127       -0.54971        1.21661
O          1.64008       -1.22696       -0.42718
O         -1.96248       -1.38933        0.94529
O         -2.73399        0.94106        1.58982
O         -1.48626        0.58485       -0.61127
P         -1.40158        0.16515        0.97647
P          2.02944        0.00194        0.62172
C          0.43244       -1.03515        2.77287
O          0.43217       -2.02119        3.36034
C          1.95694        2.01233       -1.13295
C          2.23529        3.36905       -0.96112
H          3.01604        3.66358       -0.25764
C          0.97390        1.60444       -2.03794
H          0.74082        0.54530       -2.14609
C          1.52984        4.32193       -1.69131
H          1.72554        5.38915       -1.57367
C          0.26976        2.55448       -2.77222
H         -0.51545        2.26113       -3.47051
C          0.55247        3.90135       -2.58567
F         -0.14194        4.81406       -3.26574
C          4.74478       -0.16213        0.89050
C          5.52419       -0.99162        0.09105
H          5.09449       -1.91498       -0.29753
C          5.25490        1.02475        1.43668
C          4.41424        1.86927        2.34274
H          3.50053        2.21905        1.83716
H          4.09141        1.29278        3.22375
H          4.97050        2.74952        2.69196
C          6.83761       -0.63073       -0.20014
H          7.44666       -1.28174       -0.83131
C          6.57406        1.36461        1.12403
H          6.98992        2.28725        1.53814
C          7.36304        0.55335        0.31045
H          8.39094        0.84455        0.08310
C          2.53418       -1.99052       -1.14087
C          3.10093       -1.50437       -2.31590
H          2.86465       -0.49283       -2.64739
C          2.81326       -3.27774       -0.65740
C          2.19906       -3.74698        0.62455
H          2.54453       -3.13063        1.46938
H          1.10190       -3.66136        0.60057
H          2.46309       -4.79277        0.83033
C          3.98009       -2.31008       -3.03629
H          4.43390       -1.93002       -3.95410
C          3.69488       -4.06557       -1.40385
H          3.93052       -5.07186       -1.04735
C          4.27807       -3.59200       -2.57937
H          4.96629       -4.22889       -3.13954
C         -2.37628       -2.10444       -0.14835
C         -1.44933       -2.49153       -1.11697
H         -0.40587       -2.19132       -1.00401
C         -3.71835       -2.46408       -0.25745
H         -4.42409       -2.14496        0.51136
C         -1.87242       -3.23405       -2.21618
H         -1.17137       -3.54754       -2.99171
C         -4.14106       -3.21189       -1.35372
H         -5.18534       -3.50695       -1.46951
C         -3.21450       -3.58362       -2.32138
F         -3.62166       -4.29492       -3.37309
C         -3.99397        0.40449        1.74430
C         -4.99573        0.74238        0.83705
H         -4.76067        1.41100        0.00855
C         -4.24412       -0.43412        2.84188
C         -3.15781       -0.77297        3.81537
H         -2.52933       -1.59231        3.43179
H         -2.49360        0.08775        3.98219
H         -3.57658       -1.08962        4.78032
C         -6.27457        0.21446        0.99473
H         -7.05714        0.47486        0.27869
C         -5.53800       -0.94989        2.97361
H         -5.75520       -1.60842        3.81901
C         -6.54523       -0.64137        2.06070
H         -7.54500       -1.06194        2.19015
C         -2.47153        1.21710       -1.32705
C         -3.20280        0.47510       -2.25293
H         -3.00896       -0.59365       -2.34463
C         -2.65713        2.60112       -1.17851
C         -1.85601        3.39834       -0.19737
H         -2.28004        3.31087        0.81553
H         -0.81776        3.04091       -0.14909
H         -1.84206        4.45995       -0.47860
C         -4.16698        1.10396       -3.03514
H         -4.74317        0.51919       -3.75556
C         -3.63304        3.20454       -1.98017
H         -3.79236        4.28182       -1.88464
C         -4.38819        2.47293       -2.89424
H         -5.14134        2.97588       -3.50476
