90
Cat568.ts34.5.log	Energy: -2620538.0806684
C          0.21569       -3.11968       -1.64336
H          0.00635       -3.32108       -2.69676
H          1.21130       -3.43771       -1.31808
C         -0.85355       -3.13104       -0.71579
H         -1.88144       -3.25059       -1.07245
H         -0.68193       -3.55758        0.27954
H         -0.58193       -1.74532        0.18191
Co        -0.26193       -1.21551       -1.16343
O          2.43914       -1.52781        0.61175
O          2.78553       -0.60499       -1.65907
O          1.73416        0.89238        0.17024
O         -1.80502        1.51752       -1.41079
O         -3.22794       -0.30722       -0.30851
O         -1.47173        0.79512        0.99243
P         -1.64666        0.15160       -0.50658
P          1.61387       -0.60462       -0.51742
C         -0.33682       -0.79053       -2.85911
O         -0.35882       -0.50397       -3.96990
C          1.82147       -2.12451        1.67451
C          0.84886       -1.46599        2.43032
H          0.54180       -0.45243        2.16333
C          2.23116       -3.43158        1.98655
C          3.27808       -4.10594        1.15496
H          2.98498       -4.14174        0.09414
H          4.23245       -3.55732        1.19306
H          3.45633       -5.13286        1.50108
C          0.26999       -2.11512        3.52120
H         -0.48542       -1.59398        4.11329
C          1.63272       -4.05436        3.08409
H          1.94010       -5.07186        3.34068
C          0.65962       -3.41050        3.84900
H          0.21095       -3.92158        4.70359
C          4.06117       -0.09706       -1.66200
C          4.99293       -0.40711       -0.67142
H          4.70519       -1.06326        0.14900
C          4.40412        0.73158       -2.72953
H          3.65218        0.93873       -3.49333
C          6.26225        0.16200       -0.73552
H          6.98603       -0.06082        0.05181
C          5.68105        1.28313       -2.78806
H          5.94768        1.93711       -3.62186
C          6.61171        1.00923       -1.78643
H          7.60961        1.45108       -1.82720
C          2.83591        1.51375        0.71352
C          3.42057        2.56242        0.00518
H          3.01003        2.83697       -0.96739
C          3.32577        1.13614        1.96231
H          2.84357        0.32972        2.51518
C          4.53190        3.21079        0.53391
H          5.00170        4.01904       -0.03098
C          4.43803        1.79516        2.48289
H          4.82836        1.49592        3.45856
C          5.04896        2.82582        1.77115
H          5.92443        3.33331        2.18197
C         -2.44577        2.65285       -0.96204
C         -3.83607        2.71487       -0.94609
H         -4.41297        1.85081       -1.27773
C         -1.64763        3.72843       -0.54563
C         -0.15677        3.60769       -0.56623
H          0.18123        2.79424        0.09304
H          0.20341        3.35450       -1.57559
H          0.32209        4.54233       -0.24507
C         -4.46443        3.87319       -0.49358
H         -5.55520        3.92437       -0.47286
C         -2.30578        4.88026       -0.10354
H         -1.70598        5.73294        0.22608
C         -3.69829        4.95672       -0.07011
H         -4.18455        5.86820        0.28490
C         -3.85317       -1.19112       -1.14238
C         -4.59461       -2.21743       -0.55711
H         -4.63967       -2.27518        0.53200
C         -3.77286       -1.07181       -2.53091
H         -3.20678       -0.25196       -2.97663
C         -5.25264       -3.13678       -1.36958
H         -5.83422       -3.94053       -0.91182
C         -4.42642       -2.00635       -3.33270
H         -4.35653       -1.91854       -4.41939
C         -5.16479       -3.04008       -2.75911
H         -5.67542       -3.76757       -3.39359
C         -2.37589        0.81596        2.02753
C         -2.73619       -0.36968        2.66734
H         -2.33274       -1.31743        2.30666
C         -2.87396        2.04190        2.45953
H         -2.58469        2.95173        1.93098
C         -3.60518       -0.32184        3.75457
H         -3.88989       -1.24975        4.25674
C         -3.73991        2.07685        3.55086
H         -4.13255        3.03808        3.89065
C         -4.10896        0.90012        4.20109
H         -4.78988        0.93395        5.05434
