86
Cat558.ts34.5.log	Energy: -2336839.9509017
C         -0.98328       -3.56795       -0.51527
H         -0.69902       -4.39743        0.13799
H         -2.06338       -3.43550       -0.62828
C         -0.13805       -3.23674       -1.60644
H          0.80545       -3.77580       -1.73674
H         -0.60238       -2.95579       -2.55798
H         -0.04852       -1.54884       -1.51015
Co         0.04234       -1.88858       -0.07416
O         -1.40773        0.93799        0.06930
O         -2.82811       -0.90635       -0.98019
O         -2.64189       -0.77693        1.47985
O          1.98648        0.18747        1.24070
O          3.16274       -1.11453       -0.51383
O          1.51039        0.66929       -1.23196
P          1.64655       -0.56853       -0.18494
P         -1.67333       -0.70198        0.15246
C          0.57644       -2.60705        1.42124
O          0.90737       -3.09221        2.41213
C         -2.35195        1.88308       -0.22561
C         -3.18551        2.38125        0.77419
H         -3.09845        1.97022        1.78052
C         -2.41260        2.36696       -1.54225
C         -1.52348        1.77662       -2.59161
H         -0.51400        1.60202       -2.19412
H         -1.90519        0.78968       -2.90167
H         -1.46957        2.42170       -3.47975
C         -4.10790        3.38016        0.47004
H         -4.76314        3.77090        1.25207
C         -3.33924        3.37729       -1.81703
H         -3.39840        3.77342       -2.83471
C         -4.18371        3.88091       -0.82820
H         -4.89920        4.66940       -1.07248
C         -4.25184       -0.83366       -0.78525
H         -4.45799       -0.16110        0.06132
C         -4.77651       -2.21815       -0.46181
H         -4.30848       -2.60002        0.45606
H         -4.55826       -2.91432       -1.28676
H         -5.86610       -2.19311       -0.30918
C         -4.84811       -0.25166       -2.04812
H         -4.46875        0.76438       -2.22252
H         -4.59553       -0.88000       -2.91621
H         -5.94381       -0.20058       -1.96260
C         -2.15715       -1.21805        2.75087
H         -1.65505       -2.19042        2.60716
C         -3.37575       -1.41746        3.62579
H         -4.07088       -2.13479        3.16611
H         -3.90818       -0.46413        3.76666
H         -3.08087       -1.80103        4.61352
C         -1.15960       -0.23295        3.32767
H         -0.29854       -0.10345        2.65610
H         -1.63072        0.75027        3.48363
H         -0.78167       -0.59547        4.29507
C          2.86390        1.23500        1.39844
C          4.23957        1.02142        1.32095
H          4.59950        0.01644        1.10258
C          2.33206        2.50309        1.68188
C          0.85211        2.70715        1.75953
H          0.60226        3.77663        1.77858
H          0.33727        2.23233        0.91335
H          0.43951        2.24497        2.67039
C          5.11597        2.08690        1.51334
H          6.19379        1.91969        1.44973
C          3.23719        3.55149        1.87869
H          2.84234        4.54754        2.09698
C          4.61438        3.35629        1.79231
H          5.29516        4.19666        1.94604
C          3.40585       -2.23011       -1.37781
H          2.55572       -2.32732       -2.07706
C          3.51517       -3.49707       -0.55450
H          2.57623       -3.68430       -0.01640
H          4.32540       -3.40176        0.18420
H          3.72948       -4.36226       -1.19985
C          4.66735       -1.92816       -2.15990
H          4.55825       -1.01016       -2.75398
H          5.51692       -1.79476       -1.47290
H          4.90304       -2.75681       -2.84396
C          2.54234        1.26719       -2.03068
H          3.51863        0.92494       -1.65261
C          2.44773        2.77082       -1.88620
H          2.61137        3.07217       -0.84322
H          1.45716        3.12883       -2.20526
H          3.21143        3.25818       -2.51056
C          2.35672        0.79869       -3.46144
H          2.39124       -0.29874       -3.52465
H          1.38163        1.12994       -3.84957
H          3.14615        1.20741       -4.11005
