92
Cat535.ts34.5.log	Energy: -2605567.6961206
C         -0.03777       -3.58969       -0.90279
H          0.52739       -4.30428       -0.29839
H         -1.09946       -3.83403       -1.01380
C          0.63062       -2.89377       -1.93542
H          1.70804       -3.02252       -2.08223
H          0.09285       -2.70740       -2.87163
H          0.21873       -1.25815       -1.71896
Co         0.31786       -1.68766       -0.30113
O         -2.10077        0.19512       -1.23105
C         -3.02017       -2.13007       -0.21350
C         -2.09750       -0.04860        1.49939
O          2.19481        0.45944        1.19263
C          3.19407       -0.26851       -1.24617
C          1.02753        1.56099       -0.93542
P          1.63082       -0.05003       -0.32703
P         -1.65527       -0.92852       -0.03775
C          0.79965       -2.31256        1.24213
O          1.07978       -2.71945        2.28585
C         -3.01415        1.19192       -1.05676
C         -2.62482        2.38412       -0.43938
H         -1.60222        2.48201       -0.07430
C         -4.32322        1.04464       -1.51956
H         -4.62159        0.10857       -1.99286
C         -3.53589        3.42258       -0.28283
H         -3.25142        4.35735        0.20375
C         -5.24035        2.08342       -1.36693
H         -6.26859        1.99104       -1.72138
C         -4.83590        3.25901       -0.74814
F         -5.71381        4.25381       -0.59715
C         -3.53279       -2.41952       -1.48234
H         -3.19826       -1.83231       -2.34138
C         -3.42896       -2.92009        0.86843
H         -3.02227       -2.72961        1.86536
C         -4.45611       -3.44805       -1.65721
H         -4.84799       -3.65462       -2.65727
C         -4.34935       -3.94645        0.68611
H         -4.65912       -4.54730        1.54606
C         -4.88615       -4.22675       -0.57775
C         -5.89930       -5.31878       -0.75755
H         -5.62391       -6.22013       -0.18951
H         -6.89152       -4.99987       -0.39705
H         -6.00659       -5.60004       -1.81467
C         -3.42633        0.20200        1.87462
H         -4.24648       -0.19942        1.27530
C         -1.06841        0.48392        2.28134
H         -0.02606        0.30097        2.01113
C         -3.70964        0.97170        2.99476
H         -4.75185        1.16379        3.26490
C         -1.36041        1.25669        3.40323
H         -0.53997        1.66583        3.99905
C         -2.68170        1.51639        3.77824
C         -3.00163        2.33768        4.99186
H         -2.10872        2.84335        5.38489
H         -3.76017        3.10311        4.76709
H         -3.41000        1.70580        5.79762
C          3.49095        0.35901        1.61113
C          4.44301        1.29662        1.20447
H          4.14771        2.10292        0.53162
C          3.85402       -0.67966        2.47007
H          3.09710       -1.40305        2.77702
C          5.75933        1.19032        1.64293
H          6.52218        1.90629        1.33220
C          5.16892       -0.78608        2.91627
H          5.47750       -1.58961        3.58747
C          6.10705        0.14670        2.49215
F          7.36976        0.04052        2.91062
C          3.87605       -1.47995       -1.06938
H          3.42588       -2.25588       -0.44358
C          3.76416        0.71346       -2.05997
H          3.24720        1.66397       -2.21149
C          5.11232       -1.68751       -1.66615
H          5.63838       -2.63209       -1.50184
C          4.99508        0.48971       -2.67326
H          5.42721        1.26667       -3.30997
C          5.69455       -0.70571       -2.48065
C          7.02862       -0.94298       -3.12382
H          7.34983       -0.07855       -3.72111
H          7.80278       -1.13845       -2.36497
H          6.99902       -1.82174       -3.78745
C          1.15185        2.73256       -0.18370
H          1.62812        2.69111        0.79741
C          0.39498        1.62515       -2.18331
H          0.26271        0.71569       -2.77386
C          0.65670        3.94094       -0.67381
H          0.75488        4.84575       -0.06743
C         -0.08675        2.83392       -2.66825
H         -0.58505        2.86116       -3.64094
C          0.02564        4.01350       -1.91905
C         -0.57249        5.29455       -2.41708
H         -0.40819        5.42520       -3.49697
H         -1.66336        5.29515       -2.25221
H         -0.15594        6.16778       -1.89548
