52
Cat581.ts34.5.log	Energy: -2478217.9409942
C         -4.76364        0.88135       -0.20007
H         -5.50371        0.44840        0.47879
H         -4.73790        1.97633       -0.17156
C         -4.51408        0.22671       -1.44367
H         -4.98850       -0.73947       -1.64486
H         -4.42907        0.83821       -2.35000
H         -2.87998        0.34760       -1.53106
Co        -3.00149       -0.05972       -0.11167
O         -0.33901        1.57603       -0.59901
C         -2.23884        3.27542        0.35291
C         -0.95336        1.46093        2.08369
O         -0.24020       -1.44603        0.38250
C         -1.99126       -3.26467       -0.64175
C         -0.78480       -1.31318       -2.30935
P         -1.56679       -1.48871       -0.67319
P         -1.70403        1.52591        0.41901
C         -3.48794       -0.91614        1.32265
O         -3.78898       -1.46103        2.29405
C          0.77677        2.31759       -0.37282
C          1.81242        1.81132        0.41950
H          1.69440        0.83008        0.88131
C          0.92381        3.56599       -0.98416
H          0.11853        3.94304       -1.61725
C          2.97862        2.54695        0.60526
H          3.79060        2.15560        1.22032
C          2.08851        4.30612       -0.80184
H          2.21089        5.27978       -1.27908
C          3.11092        3.79441       -0.00396
Cl         4.56242        4.71313        0.22589
H         -3.05466        3.41158        1.07862
H         -1.42281        3.97216        0.59722
H         -2.62892        3.50198       -0.65004
H         -0.23145        2.26729        2.28077
H         -1.78145        1.52758        2.80572
H         -0.47365        0.47986        2.20583
C          0.88683       -2.19694        0.24861
C          1.95220       -1.73932       -0.53302
H          1.85685       -0.78783       -1.05841
C          1.00873       -3.40124        0.94700
H          0.17882       -3.73689        1.57151
C          3.12487       -2.48314       -0.62413
H          3.96139       -2.13011       -1.22935
C          2.17911       -4.14884        0.85884
H          2.28249       -5.08849        1.40384
C          3.23219       -3.68808        0.06928
Cl         4.69057       -4.61672       -0.04350
H         -1.13924       -3.91255       -0.89789
H         -2.37122       -3.52377        0.35697
H         -2.80277       -3.42741       -1.36668
H         -0.37360       -0.29645       -2.37818
H          0.00110       -2.06053       -2.49079
H         -1.57533       -1.42405       -3.06648
