64
Cat582.ts34.5.log	Energy: -2576810.5928526
C          2.45483       -3.78423       -0.73212
H          3.35557       -4.14901       -0.23049
H          1.62330       -4.49657       -0.70094
C          2.60500       -2.96238       -1.88803
H          3.60635       -2.64199       -2.19445
H          1.95458       -3.15027       -2.75086
H          1.45213       -1.81547       -1.61590
Co         2.03202       -1.88601       -0.25670
O         -0.94233       -0.87341       -0.41562
C         -0.91895       -3.57207        0.24982
C         -0.33320       -1.50852        2.17564
O          1.37666        1.02689        0.70532
C          3.87475        0.97949       -0.32791
C          1.57740        0.88906       -2.09004
P          2.22170        0.19989       -0.50920
P          0.02424       -1.99452        0.43910
C          3.14634       -1.95355        1.07244
O          3.87522       -2.00356        1.96714
C         -2.29696       -0.79312       -0.41183
C         -2.97989       -0.08618        0.58374
H         -2.41585        0.39077        1.38652
C         -3.01701       -1.36820       -1.46387
H         -2.47011       -1.89429       -2.24856
C         -4.36805        0.01307        0.54689
H         -4.90644        0.55973        1.32281
C         -4.40362       -1.27193       -1.50551
H         -4.97026       -1.72406       -2.32111
C         -5.07612       -0.58698       -0.49321
Cl        -6.80410       -0.46808       -0.53801
H         -0.18600       -4.34260        0.54265
C         -2.22791       -3.78535        0.99726
H         -2.99519       -3.04786        0.72632
H         -2.08582       -3.73502        2.08681
H         -1.04919       -3.70313       -0.83823
H         -2.63538       -4.78293        0.77019
H         -1.42140       -1.48914        2.34458
C          0.35660       -2.41100        3.18937
H          1.44739       -2.40810        3.05665
H          0.01498       -3.45535        3.11405
H          0.04086       -0.47542        2.25469
H          0.14510       -2.07111        4.21449
C          0.88801        2.29232        0.62982
C         -0.38827        2.51087        0.10363
H         -0.95717        1.65488       -0.26017
C          1.63033        3.36842        1.12251
H          2.61457        3.18228        1.55601
C         -0.90913        3.79903        0.04295
H         -1.90286        3.97765       -0.37105
C          1.11287        4.65953        1.06428
H          1.68564        5.50712        1.44413
C         -0.15257        4.87063        0.51763
Cl        -0.79644        6.47794        0.43969
H          4.17581        0.77440        0.71241
C          4.88856        0.40058       -1.30288
H          4.62454        0.62108       -2.34924
H          4.94210       -0.69351       -1.19694
H          3.78551        2.07280       -0.43400
H          5.89259        0.81195       -1.12099
H          0.48922        0.71951       -2.04068
C          1.92622        2.31060       -2.50368
H          3.01125        2.44419       -2.62865
H          1.57670        3.05946       -1.78033
H          1.94359        0.16834       -2.84026
H          1.45732        2.54566       -3.47165
