92
Cat536.ts34.5.log	Energy: -2605564.2791935
C         -1.20396       -2.39994       -2.30167
H         -2.15244       -2.22915       -2.81885
H         -0.35231       -2.60677       -2.95589
C         -1.20373       -2.90513       -0.99850
H         -2.14666       -3.12134       -0.48601
H         -0.36069       -3.52353       -0.67536
H         -0.56766       -1.69791        0.21217
Co        -0.81638       -0.86237       -0.98357
O          1.58607       -0.62953        1.06201
C          2.07721       -2.25842       -1.07571
C          2.36111        0.64418       -1.23991
O         -1.95911        1.20826        1.26740
C         -3.95229        0.38990       -0.40110
C         -2.88507       -1.26757        1.63443
P         -2.33316       -0.13330        0.30584
P          1.26775       -0.68704       -0.60286
C         -1.03150        0.24930       -2.29372
O         -1.16560        0.96540       -3.18781
C          2.67518       -0.13759        1.71761
C          3.45382       -1.00804        2.48594
H          3.20145       -2.06857        2.51209
C          2.98082        1.22677        1.69714
H          2.36071        1.90636        1.11448
C          4.54069       -0.52757        3.21125
H          5.15916       -1.19285        3.81628
C          4.07297        1.70961        2.41188
H          4.33208        2.76978        2.39837
C          4.84429        0.82704        3.15755
F          5.89094        1.28992        3.84239
C          2.24819       -3.24853       -0.10092
H          1.99348       -3.01617        0.93461
C          2.33377       -2.56013       -2.43147
C          2.14048       -1.55457       -3.52985
H          2.95840       -0.81710       -3.55515
H          1.21037       -0.98214       -3.39619
H          2.10295       -2.05041       -4.50974
C          2.71753       -4.51524       -0.43536
H          2.85012       -5.27168        0.34174
C          2.80303       -3.84110       -2.74470
H          3.00958       -4.08075       -3.79159
C          3.00468       -4.81062       -1.76564
H          3.37146       -5.80081       -2.04580
C          1.69313        1.83275       -1.56380
H          0.61032        1.87939       -1.44388
C          3.77386        0.59002       -1.33990
C          4.61522       -0.60267       -0.98682
H          4.58300       -1.37386       -1.77160
H          4.29120       -1.08662       -0.05811
H          5.66248       -0.29608       -0.85965
C          2.37708        2.96179       -2.00210
H          1.83174        3.87933       -2.22924
C          4.43771        1.73716       -1.79322
H          5.52772        1.70795       -1.87228
C          3.76131        2.90761       -2.12390
H          4.32126        3.78165       -2.46543
C         -1.31328        2.29422        0.77502
C         -0.24670        2.81372        1.51403
H          0.05267        2.30666        2.43235
C         -1.70733        2.92329       -0.41082
H         -2.54629        2.52741       -0.98500
C          0.42471        3.95031        1.07380
H          1.26405        4.36798        1.63288
C         -1.02954        4.05419       -0.86058
H         -1.31543        4.54926       -1.79022
C          0.02839        4.55311       -0.11377
F          0.69402        5.62348       -0.55872
C         -4.19872       -0.00436       -1.72087
H         -3.42639       -0.57109       -2.24388
C         -4.93972        1.11186        0.31100
C         -4.77317        1.56163        1.73297
H         -4.08414        2.41673        1.80111
H         -4.35080        0.76919        2.36604
H         -5.74194        1.86677        2.15204
C         -5.39367        0.30679       -2.36385
H         -5.56142       -0.01275       -3.39465
C         -6.12981        1.42023       -0.35837
H         -6.90016        1.98032        0.17886
C         -6.36182        1.03060       -1.67591
H         -7.30579        1.29124       -2.16086
C         -4.02654       -2.04015        1.37456
H         -4.60163       -1.85921        0.46338
C         -2.13844       -1.49828        2.81165
C         -0.90427       -0.72391        3.16690
H         -1.16727        0.28902        3.50614
H         -0.22573       -0.60774        2.31038
H         -0.35565       -1.22661        3.97570
C         -4.44921       -3.02810        2.25868
H         -5.34201       -3.61571        2.03337
C         -2.59133       -2.49142        3.68937
H         -2.02433       -2.67038        4.60714
C         -3.72715       -3.25178        3.42701
H         -4.04502       -4.02016        4.13590
