104
Cat545.ts34.5.log	Energy: -2704172.5480557
C         -0.46100       -2.35326       -2.66341
H         -0.50665       -3.44542       -2.63227
H         -1.40291       -1.89657       -2.98152
C          0.76850       -1.73027       -3.01401
H          1.66072       -2.34662       -3.16692
H          0.74776       -0.85918       -3.67930
H          0.90146       -0.49399       -1.87872
Co         0.40052       -1.57987       -1.01483
O         -0.51231        0.95905        0.57457
C         -1.95425        0.73278       -1.78564
C         -2.58846       -0.72553        0.70206
O          2.14524       -1.41862        1.71412
C          3.61903       -1.79947       -0.46214
C          2.56458        0.82616        0.32288
P          2.08667       -0.94626        0.08907
P         -1.17978       -0.26390       -0.40222
C          0.43893       -3.17157       -0.32825
O          0.47411       -4.25274        0.07878
C         -1.01997        2.17392        0.90468
C         -0.54928        3.30380        0.22648
H          0.19395        3.17768       -0.56430
C         -1.93320        2.32588        1.95361
H         -2.25723        1.45021        2.51539
C         -1.02080        4.57148        0.55817
H         -0.66946        5.46372        0.03710
C         -2.41286        3.59026        2.28337
H         -3.13330        3.73019        3.09128
C         -1.95847        4.69783        1.57625
F         -2.41959        5.90712        1.89265
H         -1.29115        1.61027       -1.85933
H         -1.75265        0.13346       -2.68430
C         -3.39000        1.17447       -1.76061
C         -3.74478        2.37518       -1.13046
H         -2.97012        2.97006       -0.64548
C         -4.39316        0.42662       -2.41623
C         -4.08197       -0.84503       -3.14770
H         -3.64191       -1.60172       -2.48058
H         -3.37058       -0.67468       -3.97263
H         -4.99287       -1.27969       -3.57967
C         -5.05784        2.83759       -1.12512
H         -5.29917        3.77928       -0.62684
C         -5.70833        0.90487       -2.39725
H         -6.48288        0.32176       -2.90258
C         -6.04912        2.09520       -1.76101
H         -7.08523        2.44177       -1.76629
H         -2.08469       -1.06954        1.62155
H         -3.12234        0.20172        0.94294
C         -3.54936       -1.76351        0.19318
C         -3.07447       -2.97524       -0.32223
H         -2.00044       -3.15392       -0.33797
C         -4.94178       -1.54214        0.25648
C         -5.51620       -0.31092        0.89357
H         -5.15617        0.61129        0.41477
H         -5.24728       -0.25455        1.96132
H         -6.61226       -0.31112        0.82513
C         -3.94234       -3.94238       -0.82248
H         -3.54177       -4.87618       -1.22382
C         -5.79823       -2.51989       -0.26118
H         -6.87685       -2.34405       -0.22376
C         -5.31372       -3.70617       -0.80742
H         -6.00936       -4.44935       -1.20461
C          1.08868       -1.23779        2.56357
C          0.21962       -2.29864        2.82744
H          0.38364       -3.25835        2.33826
C          0.90236       -0.01308        3.20959
H          1.59383        0.80739        3.01639
C         -0.84840       -2.12841        3.70607
H         -1.54507       -2.94219        3.91514
C         -0.16050        0.16324        4.08949
H         -0.32472        1.11556        4.59652
C         -1.03168       -0.89475        4.31827
F         -2.06899       -0.71667        5.13902
H          3.43642       -2.84352       -0.15656
H          3.54577       -1.78863       -1.55716
C          4.95953       -1.32312        0.01154
C          5.29505       -1.43582        1.36724
H          4.55243       -1.84259        2.05733
C          5.90204       -0.79249       -0.89471
C          5.59806       -0.64891       -2.35855
H          4.71352       -0.01630       -2.53186
H          5.40503       -1.62596       -2.83112
H          6.44195       -0.18596       -2.88731
C          6.54410       -1.03823        1.83697
H          6.78486       -1.13697        2.89803
C          7.15367       -0.40325       -0.40352
H          7.88818        0.00493       -1.10313
C          7.48113       -0.52214        0.94465
H          8.46711       -0.20980        1.29683
H          1.63683        1.29630        0.68068
H          3.27742        0.80086        1.15612
C          3.13394        1.58691       -0.84068
C          2.42266        1.69617       -2.04269
H          1.43899        1.22841       -2.11591
C          4.37469        2.25209       -0.72078
C          5.13234        2.28646        0.57424
H          5.35342        1.28030        0.95734
H          4.55914        2.81708        1.35242
H          6.08983        2.80975        0.45112
C          2.93816        2.38243       -3.13961
H          2.36257        2.44096       -4.06639
C          4.87967        2.93318       -1.83402
H          5.84547        3.43775       -1.74401
C          4.18502        2.99224       -3.03965
H          4.61042        3.52867       -3.89105
