62
Cat556.ts34.5.log	Energy: -2139612.6025696
C         -0.90386       -3.59372       -0.59869
H         -0.47996       -4.49140       -0.14075
H         -1.98005       -3.47255       -0.44445
C         -0.29070       -3.06402       -1.75677
H          0.62484       -3.52049       -2.14567
H         -0.92382       -2.64549       -2.54677
H         -0.19998       -1.38549       -1.41265
Co         0.14793       -1.94042       -0.09741
O         -1.79264        0.53220       -0.48725
O         -2.82115       -1.39005        0.87098
O         -1.21437        0.27386        1.90666
O          2.05840        0.41975        0.69839
O          3.34296       -1.38682       -0.37277
O          1.83924        0.03888       -1.84772
P          1.81692       -0.76189       -0.42837
P         -1.37958       -0.67550        0.56948
C          0.75011       -2.79319        1.29769
O          1.11633       -3.35744        2.23191
C         -2.95132        1.26209       -0.43894
C         -3.07902        2.33581        0.43966
H         -2.25163        2.56375        1.11190
C         -3.98026        0.91016       -1.32666
C         -3.80359       -0.26173       -2.24230
H         -2.87807       -0.16497       -2.83065
H         -3.71387       -1.19544       -1.66399
H         -4.65288       -0.35967       -2.93192
C         -4.25890        3.07681        0.45227
H         -4.36377        3.91717        1.14254
C         -5.15079        1.67309       -1.29585
H         -5.96492        1.41610       -1.97925
C         -5.29742        2.74482       -0.41525
H         -6.22401        3.32333       -0.41119
C         -3.86900       -0.89199        1.68383
H         -3.49904       -0.13971        2.39512
H         -4.65369       -0.43659        1.06106
H         -4.29317       -1.74136        2.23929
C         -0.36041       -0.12998        2.95981
H         -0.65405       -1.10808        3.37486
H          0.68500       -0.17776        2.61992
H         -0.44801        0.62782        3.75029
C          2.84880        1.53055        0.52340
C          4.22654        1.44604        0.70507
H          4.66084        0.47833        0.95954
C          2.21379        2.73754        0.19403
C          0.72962        2.77210        0.00552
H          0.42096        2.14988       -0.84918
H          0.21109        2.35080        0.87958
H          0.37256        3.79704       -0.16270
C          5.00989        2.58664        0.54107
H          6.09205        2.52681        0.67866
C          3.02467        3.86598        0.03977
H          2.55443        4.81903       -0.21766
C          4.40804        3.79783        0.20530
H          5.01598        4.69628        0.07663
C          3.58869       -2.64725       -0.95481
H          2.74466       -3.33375       -0.77209
H          3.74790       -2.56352       -2.04374
H          4.49627       -3.05963       -0.49342
C          2.97404        0.60494       -2.47899
H          2.99742        1.69233       -2.31468
H          3.90805        0.16961       -2.09524
H          2.89099        0.40185       -3.55676
