106
Cat576.ts34.5.log	Energy: -2345272.8251914
C         -0.79181       -2.25437       -2.93513
H         -0.48359       -3.29910       -3.03324
H         -1.86944       -2.10672       -3.06298
C          0.09580       -1.23706       -3.39343
H          1.09276       -1.51268       -3.75322
H         -0.32257       -0.39399       -3.95640
H         -0.03425       -0.12122       -2.17017
Co         0.05607       -1.35384       -1.35971
O         -1.52721        1.07529       -0.12392
C         -3.32082       -0.87827       -1.00739
C         -1.84448       -1.11277        1.46061
O          1.29225       -0.14329        1.25388
C          3.29594       -1.00977       -0.41082
C          1.87955        1.43462       -0.95965
P          1.60781       -0.29157       -0.39813
P         -1.64119       -0.61802       -0.29361
C          0.58616       -2.88565       -0.74065
O          0.94034       -3.90336       -0.32126
C         -2.55354        1.94856        0.06449
C         -2.99986        2.23654        1.35879
H         -2.51512        1.74270        2.20226
C         -3.11466        2.59573       -1.05001
C         -2.60384        2.33937       -2.43722
H         -2.40752        3.28623       -2.96277
H         -1.67505        1.75422       -2.41465
H         -3.34229        1.78538       -3.03958
C         -4.04827        3.12865        1.55658
H         -4.39820        3.34015        2.56969
C         -4.16776        3.48939       -0.82240
H         -4.62037        3.99520       -1.68031
C         -4.64479        3.75002        0.45952
H         -5.47103        4.44968        0.60364
H         -3.30058       -1.93939       -1.31248
H         -3.32599       -0.30987       -1.95070
C         -4.56594       -0.60338       -0.17440
H         -4.55557       -1.25674        0.71370
H         -4.56044        0.42901        0.20816
C         -5.88312       -0.82826       -0.92374
H         -5.87523       -1.86120       -1.32118
C         -7.05693       -0.70175        0.04084
H         -6.97093       -1.41380        0.87653
H         -8.01712       -0.88890       -0.46448
H         -7.09707        0.31318        0.47050
C         -6.04852        0.12984       -2.09910
H         -7.01662       -0.02221       -2.60088
H         -5.26392       -0.00381       -2.85923
H         -6.00696        1.17656       -1.75364
H         -2.66782       -0.55234        1.93071
H         -0.90366       -0.78448        1.92671
C         -2.03892       -2.61641        1.62813
H         -3.10254       -2.86745        1.47487
H         -1.48498       -3.16166        0.84375
C         -1.58365       -3.15297        2.98954
H         -2.03672       -2.51310        3.77073
C         -2.08661       -4.57690        3.19489
H         -3.18556       -4.63044        3.14221
H         -1.77575       -4.97640        4.17277
H         -1.68115       -5.24676        2.41833
C         -0.06626       -3.08946        3.13888
H          0.24725       -3.42372        4.13994
H          0.32822       -2.07364        2.98862
H          0.41947       -3.74093        2.39417
C          2.07043        0.38779        2.24271
C          3.09397       -0.38102        2.80399
H          3.26292       -1.38885        2.42236
C          1.76988        1.66544        2.74642
C          0.64971        2.48285        2.17751
H          1.03505        3.28888        1.53085
H         -0.02668        1.87044        1.56900
H          0.07036        2.96647        2.97782
C          3.86756        0.13032        3.84114
H          4.66845       -0.47604        4.27051
C          2.56043        2.15197        3.79411
H          2.33965        3.14521        4.19576
C          3.60578        1.40750        4.33431
H          4.20492        1.81764        5.15028
H          3.21416       -1.99411        0.08001
H          3.97316       -0.39057        0.19673
C          3.80585       -1.18213       -1.83535
H          3.03918       -1.72744       -2.41093
H          3.90659       -0.19473       -2.32320
C          5.14144       -1.91993       -1.94826
H          5.01694       -2.90100       -1.45247
C          5.47911       -2.17398       -3.41258
H          4.67937       -2.73834       -3.91687
H          6.41395       -2.74605       -3.51708
H          5.60919       -1.22253       -3.95530
C          6.27341       -1.17713       -1.24714
H          7.22734       -1.71666       -1.35226
H          6.08397       -1.05049       -0.17060
H          6.41010       -0.17273       -1.68327
H          0.94154        1.95420       -0.70222
H          1.87900        1.35662       -2.05956
C          3.10618        2.18408       -0.45952
H          3.18224        2.09656        0.63497
H          4.02149        1.71475       -0.86257
C          3.12290        3.67074       -0.82685
H          2.18897        4.11683       -0.43484
C          4.29524        4.36611       -0.14509
H          4.25844        4.23355        0.94757
H          4.30211        5.44662       -0.35668
H          5.25471        3.95189       -0.49768
C          3.15001        3.89589       -2.33420
H          3.17058        4.96995       -2.57514
H          2.27010        3.46371       -2.83413
H          4.04893        3.43782       -2.78092
