100
Cat583.ts34.5.log	Energy: -2872610.5550216
C          1.28958        2.40775       -2.62714
H          1.13722        3.49024       -2.62393
H          2.33951        2.10424       -2.70689
C          0.30097        1.57774       -3.21777
H         -0.61917        2.02792       -3.60450
H          0.63492        0.71668       -3.80790
H          0.05092        0.37671       -2.10410
Co         0.22328        1.51830       -1.16973
O          2.58820       -0.51017       -1.56771
C          3.24074        1.40793        0.33168
C          1.56141       -0.84238        0.96317
O         -1.48160       -0.69981        0.26900
C         -2.69503        1.71848        0.61564
C         -2.82625        0.32558       -1.90743
P         -1.64452        0.78338       -0.56680
P          1.84218        0.41196       -0.34529
C          0.17746        2.97843       -0.24199
O          0.19932        3.92367        0.42280
C          3.84675       -1.01094       -1.48830
C          4.08084       -2.26848       -0.92319
H          3.23199       -2.86255       -0.58079
C          4.92248       -0.26599       -1.98068
H          4.72559        0.69593       -2.45768
C          5.38173       -2.74064       -0.77724
H          5.57458       -3.71068       -0.31623
C          6.22504       -0.73107       -1.83561
H          7.07121       -0.14241       -2.19366
C          6.45054       -1.95726       -1.21117
Cl         8.07584       -2.51113       -0.97125
H          3.68237        1.90841       -0.54698
H          2.75246        2.21973        0.89740
C          4.31998        0.73510        1.17539
H          3.92142        0.51809        2.18105
H          4.59804       -0.24029        0.75038
C          5.58536        1.57237        1.29881
H          5.35715        2.52881        1.80366
H          5.93267        1.84278        0.28478
C          6.71043        0.85381        2.03049
H          6.36010        0.55538        3.03466
H          6.93589       -0.08769        1.49835
C          7.97746        1.68400        2.15459
H          8.77314        1.13525        2.68079
H          7.79306        2.61790        2.70982
H          8.36817        1.96367        1.16279
H          0.86619       -1.57061        0.51761
H          2.49773       -1.36438        1.21628
C          0.92192       -0.21247        2.19524
H          1.66752        0.38582        2.74786
H          0.14507        0.49627        1.86346
C          0.28584       -1.23263        3.12684
H          1.05862       -1.92063        3.51529
H         -0.41009       -1.85843        2.54174
C         -0.46796       -0.60227        4.28865
H          0.22816        0.00516        4.89374
H         -1.20730        0.11401        3.88557
C         -1.17017       -1.61952        5.17327
H         -1.71042       -1.13739        6.00220
H         -0.45125       -2.32907        5.61339
H         -1.89937       -2.21072        4.59556
C         -2.46649       -1.60072        0.50445
C         -2.67576       -2.64903       -0.39727
H         -2.02546       -2.73222       -1.26993
C         -3.25651       -1.51490        1.65575
H         -3.05762       -0.72430        2.38088
C         -3.71238       -3.55375       -0.19597
H         -3.89574       -4.35987       -0.90824
C         -4.29317       -2.41976        1.86445
H         -4.92487       -2.34767        2.75128
C         -4.53209       -3.42184        0.92466
Cl        -5.85701       -4.51556        1.15129
H         -3.54791        1.08904        0.91631
H         -2.07571        1.87699        1.51496
C         -3.18953        3.05446        0.07403
H         -2.33428        3.66451       -0.25584
H         -3.80763        2.88851       -0.82537
C         -3.99788        3.83938        1.09804
H         -3.37645        4.00561        1.99652
H         -4.85790        3.23155        1.43438
C         -4.49667        5.17897        0.57515
H         -3.63168        5.77730        0.23908
H         -5.11103        5.00917       -0.32705
C         -5.29791        5.96590        1.59943
H         -5.64380        6.92829        1.19294
H         -4.69564        6.18139        2.49663
H         -6.18755        5.40482        1.92846
H         -2.74751        1.13718       -2.64939
H         -2.36354       -0.54965       -2.39537
C         -4.28729        0.04720       -1.56298
H         -4.36761       -0.52146       -0.62522
H         -4.81375        0.99869       -1.37879
C         -5.01351       -0.73378       -2.64939
H         -4.43952       -1.65185       -2.87203
H         -5.02566       -0.15111       -3.58856
C         -6.43321       -1.12091       -2.25979
H         -6.39616       -1.71622       -1.32988
H         -7.00428       -0.20893       -2.01041
C         -7.16293       -1.90505       -3.33797
H         -8.18224       -2.17564       -3.02377
H         -6.63132       -2.83991       -3.57861
H         -7.24482       -1.32450       -4.27103
