80
Cat589.ts34.5.log	Energy: -2959114.6588218
C         -0.14834        3.62503       -1.09507
H         -0.85801        4.28052       -0.58329
H          0.88504        3.98708       -1.08912
C         -0.60626        2.83708       -2.17421
H         -1.66629        2.83720       -2.44867
H          0.05715        2.69422       -3.03428
H         -0.04746        1.26062       -1.85760
Co        -0.35670        1.70520       -0.47528
O          2.33464        0.07305       -1.05774
C          2.87701        2.51592       -0.03254
C          1.99503        0.37939        1.64357
O         -2.15570       -0.59670        0.86849
C         -2.95201       -0.02016       -1.68371
C         -0.66191       -1.61543       -1.09313
P         -1.48146       -0.06003       -0.59511
P          1.63947        1.17193        0.03426
C         -1.07010        2.30700        0.98616
O         -1.50486        2.70245        1.97948
C          3.32726       -0.80504       -0.73998
C          4.66155       -0.50246       -1.01772
H          4.91175        0.45752       -1.47064
C          2.99949       -2.03018       -0.15388
H          1.95375       -2.25273        0.06113
C          5.66498       -1.41653       -0.70469
H          6.71096       -1.18869       -0.91611
C          3.99675       -2.94461        0.16171
H          3.74684       -3.90034        0.62473
C          5.32805       -2.63162       -0.11176
Cl         6.57694       -3.76777        0.28777
C          3.07131        3.36611        1.06339
C          3.49075        2.82696       -1.25236
C          4.51607        4.77858       -0.26389
C          4.31118        3.94787       -1.36480
C          3.89024        4.48700        0.94823
H          2.58021        3.14762        2.01546
H          4.04143        5.13778        1.81290
H          5.15885        5.65761       -0.35171
H          4.79075        4.17591       -2.31996
H          3.31856        2.18114       -2.11717
C          0.93970       -0.24395        2.31904
C          3.29166        0.29408        2.17225
C          2.46936       -1.03641        4.01102
C          3.52634       -0.41076        3.34853
C          1.17709       -0.94970        3.49743
H         -0.07547       -0.18160        1.92104
H          0.34446       -1.43129        4.01547
H          2.65576       -1.59138        4.93387
H          4.54129       -0.47807        3.74701
H          4.12481        0.77307        1.65362
C         -3.49134       -0.62862        1.14639
C         -4.29564       -1.66038        0.65792
H         -3.85314       -2.43724        0.03273
C         -4.04603        0.37079        1.94689
H         -3.40389        1.16970        2.32097
C         -5.65423       -1.68622        0.95418
H         -6.29258       -2.48320        0.56996
C         -5.40405        0.34490        2.25088
H         -5.84854        1.12228        2.87433
C         -6.20358       -0.67995        1.74753
Cl        -7.89863       -0.70549        2.11217
C         -3.76429        1.11835       -1.60426
C         -3.31817       -1.06725       -2.53600
C         -5.30311        0.14700       -3.18768
C         -4.48673       -0.97829       -3.29030
C         -4.94208        1.19545       -2.34123
H         -3.46437        1.93962       -0.94713
H         -5.57894        2.07919       -2.25900
H         -6.22373        0.20950       -3.77287
H         -4.76515       -1.79775       -3.95729
H         -2.69046       -1.95852       -2.60595
C          0.10438       -1.63149       -2.26529
C         -0.77242       -2.78348       -0.33123
C          0.60157       -3.97085       -1.92674
C         -0.14111       -3.95620       -0.74809
C          0.72409       -2.80482       -2.68366
H          0.22704       -0.71535       -2.84747
H          1.32110       -2.80556       -3.59824
H          1.09951       -4.88769       -2.25059
H         -0.22986       -4.86229       -0.14386
H         -1.34926       -2.76522        0.59499
