106
Cat554.ts34.5.log	Energy: -2345275.7380716
C          0.40927       -1.68399       -3.07714
H          0.88516       -2.65678       -3.22891
H         -0.62001       -1.64259       -3.44901
C          1.21790       -0.51564       -3.15805
H          2.29858       -0.61614       -3.30415
H          0.81219        0.36093       -3.67750
H          0.74059        0.36973       -1.84794
Co         0.73073       -0.97597       -1.22653
O         -1.04445        1.18877        0.18926
C         -2.41201        0.06257       -1.93911
C         -2.21226       -1.26035        0.59865
O          1.78699        0.24871        1.68603
C          3.76255       -0.90373        0.29130
C          2.58976        1.65934       -0.35969
P          2.14346       -0.06575        0.06208
P         -1.19790       -0.30980       -0.59711
C          1.03392       -2.59681       -0.70888
O          1.22663       -3.68915       -0.38081
C         -2.05847        2.05200        0.48040
C         -2.85461        1.84360        1.61144
H         -2.64059        0.98530        2.24942
C         -2.25044        3.18001       -0.33607
C         -1.36376        3.45036       -1.51616
H         -0.49091        2.78488       -1.51573
H         -1.90267        3.30223       -2.46637
H         -1.00791        4.49184       -1.50797
C         -3.89123        2.72153        1.90889
H         -4.51492        2.54633        2.78867
C         -3.29913        4.04864       -0.01177
H         -3.46597        4.92693       -0.64221
C         -4.12480        3.82359        1.08636
H         -4.93812        4.51738        1.31038
H         -1.98645        0.92544       -2.47801
H         -2.32117       -0.78372       -2.64102
C         -3.88006        0.29918       -1.60463
H         -4.33312       -0.64177       -1.24806
H         -3.98022        1.01681       -0.77628
C         -4.67608        0.81838       -2.79393
H         -4.60297        0.10347       -3.63416
H         -4.21241        1.75460       -3.15593
C         -6.13979        1.07985       -2.46854
H         -6.60170        0.14540       -2.10328
H         -6.19460        1.78972       -1.62424
C         -6.93553        1.61860       -3.64614
H         -7.98764        1.79922       -3.37826
H         -6.92454        0.91360       -4.49310
H         -6.51668        2.57158       -4.00803
H         -1.66259       -1.24096        1.55150
H         -3.17403       -0.75057        0.76469
C         -2.43450       -2.70018        0.15684
H         -2.94234       -2.72788       -0.82465
H         -1.45941       -3.19035        0.00468
C         -3.24662       -3.49992        1.16599
H         -4.23778       -3.02863        1.29896
H         -2.75080       -3.43645        2.15112
C         -3.42514       -4.96091        0.77949
H         -3.91393       -5.01798       -0.20949
H         -2.42996       -5.42051        0.64580
C         -4.22731       -5.75957        1.79404
H         -4.33759       -6.81164        1.49015
H         -5.23933       -5.34229        1.92187
H         -3.74186       -5.74853        2.78339
C          0.90193       -0.41841        2.46486
C          0.82967       -1.81160        2.49536
H          1.49025       -2.40578        1.86471
C          0.07877        0.36496        3.29591
C          0.20716        1.85521        3.26428
H          1.19424        2.17200        3.63816
H          0.12217        2.22486        2.23251
H         -0.56728        2.33613        3.87671
C         -0.08350       -2.44521        3.33740
H         -0.13638       -3.53632        3.34710
C         -0.82490       -0.29523        4.13121
H         -1.47120        0.30337        4.77961
C         -0.91875       -1.68832        4.15457
H         -1.63882       -2.17785        4.81389
H          4.36151       -0.34507        1.02860
H          3.53828       -1.88626        0.73966
C          4.50646       -1.09193       -1.02240
H          3.82481       -1.57287       -1.74545
H          4.76000       -0.10661       -1.45380
C          5.77571       -1.92052       -0.88782
H          5.51910       -2.90779       -0.46292
H          6.45063       -1.44439       -0.15342
C          6.51365       -2.11323       -2.20515
H          5.82940       -2.58149       -2.93477
H          6.76606       -1.12369       -2.62638
C          7.77531       -2.95086       -2.07466
H          8.28538       -3.07198       -3.04230
H          7.54733       -3.95813       -1.69051
H          8.49164       -2.48838       -1.37654
H          2.90012        1.65109       -1.41846
H          1.62206        2.18797       -0.32772
C          3.61454        2.35458        0.52113
H          3.32844        2.22317        1.57752
H          4.60095        1.87247        0.40537
C          3.74498        3.83913        0.20863
H          2.75822        4.32209        0.33077
H          4.01131        3.97043       -0.85637
C          4.76855        4.55589        1.07790
H          4.50102        4.41307        2.13981
H          5.75303        4.07118        0.95170
C          4.88608        6.04056        0.77379
H          5.63262        6.53029        1.41725
H          3.92469        6.55667        0.92779
H          5.18574        6.21172       -0.27282
