104
Cat530.ts34.5.log	Energy: -2516051.9818839
C         -1.01196       -1.41643        3.14526
H         -0.91375       -0.81036        4.05028
H         -1.99058       -1.89734        3.04578
C          0.13858       -2.09651        2.66116
H          1.09682       -1.93733        3.16621
H          0.02843       -3.12647        2.30123
H          0.10862       -1.80927        1.05290
Co        -0.30990       -0.46347        1.51523
O         -2.14118       -2.10727       -0.68237
C         -3.64695       -0.85999        1.03538
C         -2.20323        0.57455       -1.18619
O          1.32128        0.94290       -0.98698
C          2.62054        1.19558        1.41321
C          2.47336       -1.30849       -0.25689
P          1.46902        0.08022        0.47084
P         -2.00611       -0.65249        0.19816
C         -0.49285        1.04744        2.33077
O         -0.63110        2.06170        2.87261
C         -1.07607       -2.79218       -1.15982
C         -0.68816       -3.97420       -0.52142
H         -1.23310       -4.28737        0.37100
C         -0.39250       -2.37528       -2.30754
H         -0.67823       -1.44435       -2.79782
C          0.36046       -4.73961       -1.02420
H          0.67717       -5.66397       -0.53777
C          0.64596       -3.14392       -2.82552
H          1.18226       -2.83681       -3.72490
C          1.01034       -4.31626       -2.17632
F          2.03006       -5.03675       -2.65308
H         -3.45710       -1.81339        1.56613
C         -4.87296       -1.08656        0.15250
H         -4.65552       -1.84581       -0.61297
H         -5.12114       -0.15096       -0.37673
C         -6.07352       -1.49885        1.00062
H         -6.95764       -1.64283        0.35826
H         -5.86618       -2.47891        1.46753
C         -6.36669       -0.47183        2.08876
H         -7.21030       -0.80362        2.71567
H         -6.68673        0.47375        1.61403
C         -5.13635       -0.20463        2.94906
H         -4.88495       -1.11759        3.51925
H         -5.34999        0.57730        3.69562
C         -3.93089        0.19690        2.10417
H         -4.13273        1.16839        1.62330
H         -3.04669        0.34340        2.74019
H         -1.15458        0.70229       -1.51388
C         -2.68426        1.94014       -0.68698
H         -2.10198        2.26553        0.18921
H         -3.73306        1.85308       -0.35403
C         -2.60175        2.98340       -1.79775
H         -2.97435        3.95331       -1.43055
H         -1.54360        3.13856       -2.06277
C         -3.36702        2.54942       -3.04166
H         -3.24764        3.29722       -3.84230
H         -4.44797        2.50670       -2.81405
C         -2.90662        1.17642       -3.51800
H         -1.85381        1.24054       -3.84946
H         -3.49190        0.85436       -4.39481
C         -3.02214        0.14037       -2.40402
H         -4.08148        0.03687       -2.12466
H         -2.70851       -0.85224       -2.75625
C          1.08224        2.25478       -1.21034
C          1.36504        2.71964       -2.50238
H          1.75717        2.01148       -3.23449
C          0.56701        3.14852       -0.26477
H          0.29319        2.81412        0.73323
C          1.15855        4.05215       -2.84054
H          1.37870        4.42343       -3.84309
C          0.37072        4.48817       -0.59833
H         -0.03056        5.19150        0.13336
C          0.66981        4.92927       -1.87849
F          0.47891        6.21099       -2.19652
H          1.99235        2.09640        1.53070
C          3.90739        1.65023        0.72847
H          3.70135        2.00361       -0.29362
H          4.60101        0.79705        0.63845
C          4.57685        2.75299        1.54530
H          5.51751        3.06302        1.06190
H          3.92078        3.64206        1.54786
C          4.83658        2.30929        2.98108
H          5.28153        3.13291        3.56259
H          5.58398        1.49472        2.97655
C          3.56218        1.81052        3.65481
H          2.85295        2.64980        3.77014
H          3.78158        1.44716        4.67186
C          2.89239        0.70879        2.84006
H          3.54900       -0.17628        2.82014
H          1.94942        0.38994        3.30984
H          1.68806       -1.99524       -0.61605
C          3.26997       -2.05230        0.81886
H          2.61973       -2.32642        1.66194
H          4.05047       -1.38631        1.22348
C          3.94658       -3.29290        0.24552
H          4.51158       -3.80977        1.03811
H          3.17533       -4.00067       -0.10574
C          4.86051       -2.92755       -0.91676
H          5.33227       -3.83056       -1.33626
H          5.68239       -2.28844       -0.54463
C          4.08559       -2.18571       -1.99825
H          3.35514       -2.88127       -2.44071
H          4.75889       -1.88187       -2.81645
C          3.36044       -0.95619       -1.45468
H          4.10641       -0.20154       -1.16153
H          2.74809       -0.49579       -2.24199
