96
Cat549.ts34.5.log	Energy: -2794327.9689390
C          0.53924       -3.16572       -2.41474
H          0.50752       -3.24022       -3.50456
H          1.48890       -3.49076       -1.97733
C         -0.65583       -3.32561       -1.67301
H         -1.61479       -3.43408       -2.18786
H         -0.61958       -3.85881       -0.71648
H         -0.57241       -2.04937       -0.57769
Co        -0.10623       -1.35209       -1.79736
O          2.36444       -1.81092        0.23639
O          3.01993       -0.69056       -1.86720
O          1.67695        0.65268       -0.12055
O         -1.59333        1.43766       -1.76107
O         -3.10478       -0.40273       -1.06748
O         -1.26685        0.30400        0.54879
P         -1.48406       -0.02747       -1.04632
P          1.68782       -0.79291       -0.92020
C         -0.13094       -0.75639       -3.44949
O         -0.11204       -0.36255       -4.52618
C          1.57846       -2.42417        1.17076
C          1.66401       -3.81118        1.30157
H          2.34050       -4.36302        0.64648
C          0.71556       -1.69433        1.99190
H          0.63882       -0.61377        1.87607
C          0.88992       -4.47185        2.25190
H          0.94051       -5.55525        2.37419
C         -0.06696       -2.35228        2.93664
H         -0.75134       -1.79905        3.58255
C          0.03153       -3.73211        3.05715
F         -0.72416       -4.36531        3.95766
C          4.27912       -0.29524       -1.47081
C          4.67767        1.01036       -1.73538
H          3.97863        1.67668       -2.24502
C          5.13208       -1.19365       -0.83292
H          4.79512       -2.21301       -0.64668
C          5.92997        1.46856       -1.31539
C          6.32182        2.89961       -1.53571
H          6.08686        3.22854       -2.55911
H          5.76810        3.55579       -0.84434
H          7.39555        3.05638       -1.36191
C          6.38696       -0.74661       -0.42934
H          7.06866       -1.43726        0.07330
C          6.77910        0.57179       -0.65743
H          7.76316        0.91155       -0.32423
C          2.60724        1.37207        0.58196
C          3.50573        0.78829        1.47130
H          3.50917       -0.29353        1.60097
C          2.58448        2.75587        0.39616
H          1.86263        3.18017       -0.30404
C          4.43445        1.58181        2.15400
C          5.44457        0.93221        3.05290
H          4.97020        0.20782        3.73211
H          6.18625        0.37937        2.45347
H          5.98323        1.67268        3.66036
C          3.49025        3.54767        1.09332
H          3.47865        4.63156        0.95413
C          4.41592        2.96661        1.95961
H          5.13316        3.59508        2.49332
C         -2.44245        2.47224       -1.43599
C         -1.90816        3.59472       -0.80662
H         -0.83995        3.62184       -0.58917
C         -3.80031        2.40495       -1.74038
H         -4.19150        1.52416       -2.24788
C         -2.74635        4.63165       -0.41334
H         -2.36171        5.50534        0.11460
C         -4.64252        3.44283       -1.34991
H         -5.71437        3.41150       -1.55300
C         -4.10718        4.53224       -0.67598
F         -4.92397        5.50218       -0.25562
C         -3.54631       -1.67565       -0.80878
C         -3.20785       -2.33029        0.37551
H         -2.57728       -1.82252        1.10867
C         -4.35051       -2.29331       -1.76388
H         -4.59367       -1.75665       -2.68233
C         -3.65390       -3.63494        0.61296
C         -3.23706       -4.36675        1.85422
H         -3.04674       -3.68150        2.69104
H         -3.99914       -5.09418        2.16847
H         -2.30230       -4.92504        1.68153
C         -4.81171       -3.58411       -1.52123
H         -5.44585       -4.07845       -2.26106
C         -4.46347       -4.25143       -0.34843
H         -4.82589       -5.26764       -0.17359
C         -1.77930        1.29926        1.34497
C         -3.15350        1.48711        1.49387
H         -3.84415        0.84417        0.94691
C         -0.86553        2.09594        2.03021
H          0.20347        1.92879        1.88994
C         -3.63600        2.52476        2.29489
C         -5.10899        2.79523        2.39302
H         -5.37111        3.70287        1.82511
H         -5.70029        1.96438        1.98416
H         -5.41976        2.96095        3.43562
C         -1.34710        3.11163        2.85321
H         -0.63923        3.74470        3.39369
C         -2.71557        3.33247        2.97744
H         -3.08088        4.14409        3.61209
