96
Cat590.ts34.5.log	Energy: -3246386.3336165
C         -0.67583       -3.70259       -1.19619
H         -0.19977       -4.57387       -0.73805
H         -1.76922       -3.72234       -1.15005
C         -0.02568       -3.05619       -2.27319
H          0.96310       -3.39171       -2.60265
H         -0.63140       -2.66094       -3.09547
H         -0.11093       -1.35226       -1.85447
Co         0.15450       -1.97907       -0.54422
O         -2.09095        0.23681       -0.87177
C         -3.10593       -1.88386        0.49031
C         -1.34031       -0.00811        1.76334
O          2.12475       -0.04984        0.98264
C          3.13647       -0.69821       -1.47655
C          1.01514        1.19261       -1.15392
P          1.58091       -0.43524       -0.57519
P         -1.56513       -0.94623        0.20761
C          0.95562       -2.85855        0.72336
O          1.49052       -3.42291        1.57797
C         -3.22755        0.96154       -0.99933
C         -3.27642        1.80204       -2.11889
H         -2.42250        1.80290       -2.79698
C         -4.31031        0.94005       -0.11282
H         -4.29898        0.29059        0.76149
C         -4.37371        2.62245       -2.34485
H         -4.40143        3.28241       -3.21357
C         -5.41389        1.76019       -0.34117
H         -6.25641        1.74744        0.35214
C         -5.44372        2.60153       -1.44969
Cl        -6.81536        3.63044       -1.72001
C         -3.53639       -2.27346        1.76634
H         -2.97732       -1.95492        2.64968
C         -3.85012       -2.29956       -0.61825
H         -3.53945       -2.00098       -1.62350
C         -4.67693       -3.04589        1.92583
H         -5.02258       -3.35068        2.91541
C         -5.00375       -3.06634       -0.47096
H         -5.56662       -3.35742       -1.35794
C         -5.42397       -3.44743        0.80921
O         -6.52075       -4.18674        1.06019
C         -7.31072       -4.61133       -0.01516
H         -6.74628       -5.25910       -0.70895
H         -8.14029       -5.18841        0.41243
H         -7.72439       -3.75902       -0.58265
C         -1.80736        1.29919        1.97687
H         -2.39113        1.80956        1.21132
C         -0.55366       -0.59211        2.76100
H         -0.13290       -1.58743        2.60893
C         -1.50851        1.98270        3.14507
H         -1.86113        3.00278        3.30948
C         -0.26126        0.07574        3.94794
H          0.36047       -0.41901        4.69392
C         -0.73371        1.37768        4.14531
O         -0.48829        2.11880        5.24072
C          0.31294        1.57878        6.25565
H          1.32627        1.33554        5.89102
H          0.39026        2.34574        7.03650
H         -0.13553        0.66918        6.69226
C          3.39013        0.36917        1.26011
C          3.70534        1.72860        1.29210
H          2.92880        2.46418        1.07846
C          4.37714       -0.58180        1.53002
H          4.10657       -1.63905        1.50720
C          5.00568        2.13619        1.57888
H          5.26411        3.19606        1.60328
C          5.67759       -0.18023        1.81211
H          6.45695       -0.91607        2.01609
C          5.98731        1.17971        1.83017
Cl         7.61085        1.68536        2.17331
C          3.98690        0.35301       -1.86152
H          3.67876        1.38851       -1.70107
C          3.55614       -2.01111       -1.69632
H          2.89430       -2.82824       -1.39665
C          5.21811        0.09109       -2.43494
H          5.89189        0.89676       -2.73172
C          4.79388       -2.29055       -2.27147
H          5.09041       -3.32794       -2.42666
C          5.63555       -1.23423       -2.64098
O          6.84736       -1.39121       -3.19876
C          7.33156       -2.68740       -3.42004
H          6.68684       -3.25255       -4.11564
H          8.32713       -2.57822       -3.86792
H          7.42369       -3.25601       -2.47823
C          0.87372        1.44439       -2.52707
H          1.26428        0.72873       -3.25607
C          0.50222        2.12077       -0.24889
H          0.58979        1.93149        0.82258
C          0.22877        2.58509       -2.97505
H          0.10730        2.79003       -4.04055
C         -0.16324        3.26520       -0.68615
H         -0.57431        3.95461        0.05146
C         -0.32186        3.49295       -2.05646
O         -0.99978        4.52996       -2.58168
C         -1.68645        5.39261       -1.71521
H         -0.99813        5.93076       -1.04020
H         -2.20516        6.12437       -2.34717
H         -2.43309        4.84780       -1.11154
