84
Cat541.ts34.5.log	Energy: -2944692.4468234
C          0.15202       -2.16949       -3.40180
H         -0.81732       -2.04689       -3.89276
H          1.02600       -1.93965       -4.01663
C          0.28465       -3.04455       -2.31902
H         -0.57843       -3.63365       -1.99323
H          1.25722       -3.50542       -2.11978
H          0.17220       -2.23685       -0.75067
Co         0.21884       -1.07393       -1.65859
O          2.17419       -1.34613        0.90254
O          3.34906       -1.44577       -1.27264
O          2.40141        0.82253       -0.44851
O         -2.83396       -0.19495       -1.82936
O         -2.36915       -2.22830       -0.35523
O         -1.99120        0.01712        0.56007
P         -1.66338       -0.82003       -0.83249
P          1.99022       -0.76676       -0.65305
C          0.26436        0.34368       -2.66249
O          0.27947        1.29232       -3.30974
C          1.11235       -1.29712        1.77293
C          0.34625       -2.44573        1.97082
H          0.60736       -3.36001        1.43572
C          0.80825       -0.11763        2.45115
H          1.41084        0.77594        2.28315
C         -0.74620       -2.41053        2.83003
H         -1.37384       -3.28893        2.98834
C         -0.28373       -0.07716        3.31335
H         -0.56337        0.84097        3.83203
C         -1.05315       -1.22023        3.47721
F         -2.13773       -1.17091        4.25606
C          4.62527       -1.50871       -0.75559
C          4.91822       -2.30985        0.34637
H          4.12054       -2.87782        0.82351
C          5.63074       -0.78338       -1.39295
H          5.37613       -0.17246       -2.25989
C          6.22004       -2.34979        0.83997
H          6.47897       -2.96022        1.70691
C          6.93110       -0.82113       -0.90254
H          7.73320       -0.24899       -1.37157
C          7.20852       -1.59932        0.21585
F          8.45114       -1.63094        0.69512
C          3.60283        1.37257       -0.07152
C          4.15456        2.33238       -0.91836
H          3.61975        2.59395       -1.83331
C          4.24726        1.01947        1.11544
H          3.81266        0.26203        1.76691
C          5.37223        2.92532       -0.59772
H          5.82909        3.67587       -1.24509
C          5.46969        1.60349        1.43249
H          6.00667        1.33078        2.34240
C          6.02042        2.54521        0.57133
F          7.19307        3.09856        0.87483
C         -3.61851        0.90971       -1.59274
C         -3.15445        2.16288       -1.99510
H         -2.18192        2.23946       -2.48468
C         -4.86001        0.78030       -0.97409
H         -5.21489       -0.20604       -0.67591
C         -3.91692        3.29870       -1.74650
H         -3.56914        4.29202       -2.03435
C         -5.62907        1.91537       -0.72781
H         -6.60222        1.84484       -0.23871
C         -5.14335        3.16051       -1.10635
F         -5.87135        4.24774       -0.85340
C         -3.68786       -2.34501        0.01043
C         -4.60183       -2.82267       -0.92802
H         -4.25141       -3.06349       -1.93270
C         -4.10314       -2.01537        1.30124
H         -3.37957       -1.63908        2.02243
C         -5.94266       -2.96838       -0.58202
H         -6.67953       -3.33701       -1.29760
C         -5.44381       -2.15821        1.64972
H         -5.79714       -1.90805        2.65161
C         -6.34754       -2.63073        0.70457
F         -7.62922       -2.76613        1.03980
C         -1.79412        1.35503        0.78853
C         -2.78898        2.02562        1.49948
H         -3.67696        1.47442        1.81123
C         -0.64563        2.02917        0.37525
H          0.14617        1.49535       -0.14724
C         -2.65052        3.38112        1.77794
H         -3.42154        3.93079        2.32054
C         -0.50754        3.38788        0.64892
H          0.38217        3.93511        0.33220
C         -1.51252        4.05048        1.34131
F         -1.38204        5.35202        1.59947
