110
Cat516.ts34.5.log	Energy: -2628989.2826774
C         -0.34311       -1.74134       -3.12723
H         -0.31264       -2.81641       -3.32499
H         -1.31180       -1.29290       -3.36731
C          0.84418       -0.97970       -3.31327
H          1.77839       -1.49015       -3.57039
H          0.76704        0.00588       -3.78716
H          0.89498       -0.00163       -1.94364
Co         0.44594       -1.26979       -1.33685
O         -0.47163        1.06904        0.52076
C         -2.02968        1.01287       -1.76360
C         -2.48838       -0.68535        0.60378
O          2.04417       -1.65189        1.44383
C          3.64116       -1.66221       -0.68284
C          2.59888        0.79823        0.51304
P          2.09323       -0.88577       -0.06196
P         -1.15398       -0.08692       -0.52456
C          0.50276       -2.96741       -0.99902
O          0.55602       -4.11140       -0.84005
C         -1.00972        2.23488        0.96535
C         -0.60648        3.43231        0.36737
H          0.12464        3.39851       -0.44383
C         -1.89273        2.27201        2.04753
H         -2.16181        1.34297        2.54982
C         -1.12762        4.64407        0.81235
H         -0.80603        5.57148        0.33054
C         -2.40959        3.49101        2.47691
H         -3.10844        3.50459        3.31798
C         -2.05286        4.69741        1.86202
C         -2.65187        6.00129        2.30311
H         -1.95414        6.83771        2.15191
H         -2.93189        5.97785        3.36622
H         -3.56548        6.23124        1.72942
H         -1.41758        1.92885       -1.76242
H         -1.84292        0.53101       -2.73314
C         -3.48262        1.36656       -1.62561
C         -3.86455        2.49283       -0.88365
H         -3.09659        3.09455       -0.39536
C         -4.47963        0.60910       -2.27918
C         -4.13746       -0.58145       -3.12473
H         -3.56783       -1.33474       -2.56011
H         -3.53118       -0.29341       -3.99974
H         -5.04696       -1.07090       -3.49720
C         -5.19937        2.87192       -0.77005
H         -5.46355        3.75642       -0.18566
C         -5.81623        1.00344       -2.15087
H         -6.58579        0.41269       -2.65500
C         -6.18408        2.12093       -1.40640
H         -7.23657        2.40335       -1.32671
H         -1.92789       -1.06318        1.47471
H         -3.04777        0.19990        0.92907
C         -3.42863       -1.73634        0.08631
C         -2.93374       -2.88224       -0.54686
H         -1.85684       -2.99885       -0.65428
C         -4.82167       -1.59942        0.26697
C         -5.40654       -0.44663        1.02965
H         -5.12939        0.52398        0.59321
H         -5.05944       -0.44574        2.07658
H         -6.50340       -0.50220        1.04174
C         -3.78703       -3.86115       -1.04927
H         -3.37012       -4.74128       -1.54438
C         -5.66474       -2.58734       -0.25317
H         -6.74494       -2.47560       -0.12411
C         -5.16352       -3.70534       -0.91628
H         -5.84859       -4.45872       -1.31276
C          0.91485       -1.70428        2.21440
C          0.15354       -2.87461        2.24405
H          0.45389       -3.72063        1.62605
C          0.54947       -0.62705        3.02176
H          1.15206        0.28194        3.01358
C         -0.97597       -2.94937        3.05284
H         -1.57142       -3.86631        3.04955
C         -0.57890       -0.71892        3.83373
H         -0.85017        0.13339        4.46289
C         -1.37223       -1.87138        3.85525
C         -2.62849       -1.94185        4.67339
H         -2.72574       -2.91186        5.18354
H         -3.51967       -1.82445        4.03347
H         -2.65979       -1.15046        5.43576
H          3.41169       -2.73986       -0.63038
H          3.64988       -1.40783       -1.75088
C          4.95520       -1.35610       -0.02660
C          5.16972       -1.73459        1.30549
H          4.35569       -2.21994        1.84802
C          5.99371       -0.72284       -0.74216
C          5.82723       -0.30570       -2.17514
H          4.98890        0.39676       -2.30140
H          5.63604       -1.17175       -2.82979
H          6.73347        0.19420       -2.54249
C          6.38785       -1.49690        1.93678
H          6.53208       -1.80181        2.97595
C          7.21111       -0.49431       -0.09022
H          8.01794       -0.00477       -0.64249
C          7.41630       -0.87390        1.23365
H          8.37869       -0.68214        1.71416
H          1.65548        1.25434        0.84796
H          3.21752        0.60209        1.39725
C          3.31489        1.70000       -0.45236
C          2.74368        2.01772       -1.69120
H          1.76538        1.60266       -1.94036
C          4.55455        2.28139       -0.10478
C          5.17739        2.06747        1.24361
H          5.34484        1.00243        1.45954
H          4.53626        2.46970        2.04513
H          6.14969        2.57389        1.30796
C          3.39125        2.84370       -2.60678
H          2.92278        3.06488       -3.56873
C          5.19282        3.10655       -1.03752
H          6.15711        3.54783       -0.77114
C          4.63265        3.38260       -2.28233
H          5.15985        4.02756       -2.98928
