102
Cat578.ts34.5.log	Energy: -2719147.0477165
C         -1.39939        0.21020       -3.39890
H         -1.42551       -0.65606       -4.06526
H         -2.37947        0.64361       -3.17556
C         -0.26054        1.04811       -3.41579
H          0.60692        0.77398       -4.02376
H         -0.39448        2.13207       -3.32732
H          0.05498        1.28432       -1.79049
Co        -0.28487       -0.15272       -1.74925
O         -1.12523        1.86761        0.51942
O         -3.10584        0.98940       -0.65586
O         -1.95956       -0.38811        1.12650
O          2.56522       -1.51305       -1.53196
O          2.71227        0.95625       -1.41253
O          1.76892       -0.32368        0.61294
P          1.64665       -0.25788       -1.03165
P         -1.56789        0.48131       -0.23137
C         -0.48413       -1.86681       -2.03458
O         -0.63115       -2.98523       -2.24725
C         -1.95305        2.64763        1.29527
C         -2.19266        2.30560        2.62242
H         -1.75644        1.38641        3.01433
C         -2.48177        3.81135        0.71849
C         -2.20264        4.13261       -0.71677
H         -1.12235        4.10387       -0.92760
H         -2.67855        3.38750       -1.37371
H         -2.58745        5.12671       -0.98208
C         -2.98527        3.13809        3.41060
H         -3.17798        2.87487        4.45317
C         -3.26826        4.62955        1.53415
H         -3.69031        5.54449        1.10930
C         -3.52353        4.30182        2.86579
H         -4.14265        4.96063        3.47897
C         -4.18530        0.15021       -0.59931
C         -4.20575       -1.03970       -1.32270
H         -3.34452       -1.30373       -1.93965
C         -5.25915        0.51127        0.21462
H         -5.20400        1.44410        0.77881
C         -5.29294       -1.91467       -1.22178
C         -5.25637       -3.23238       -1.93737
H         -5.01925       -3.10420       -3.00458
H         -4.47236       -3.87806       -1.50814
H         -6.21529       -3.76344       -1.86003
C         -6.35513       -0.34241        0.29426
H         -7.20485       -0.07160        0.92571
C         -6.37178       -1.54743       -0.41120
H         -7.23337       -2.21493       -0.32697
C         -1.98383       -1.75733        1.22290
C         -3.20967       -2.37720        1.45336
H         -4.10508       -1.75663        1.52635
C         -0.81025       -2.50290        1.12912
H          0.13685       -1.99080        0.96362
C         -3.29017       -3.76762        1.56909
C         -4.61468       -4.42516        1.82830
H         -4.87220       -4.38360        2.89977
H         -5.42264       -3.91708        1.28094
H         -4.60483       -5.48382        1.53209
C         -0.88878       -3.88958        1.23685
H          0.02124       -4.48730        1.14826
C         -2.11367       -4.51799        1.44784
H         -2.16017       -5.60760        1.52180
C          3.83767       -1.85190       -1.12207
C          4.93448       -1.15593       -1.62468
H          4.76151       -0.33599       -2.32200
C          3.98158       -2.93193       -0.24184
C          2.78440       -3.68093        0.25509
H          2.33501       -3.16448        1.11888
H          2.01024       -3.75885       -0.52110
H          3.06307       -4.69138        0.58444
C          6.21505       -1.50419       -1.20626
H          7.07898       -0.95744       -1.59143
C          5.28032       -3.25694        0.16254
H          5.41935       -4.08824        0.85876
C          6.38746       -2.55056       -0.30106
H          7.38916       -2.82751        0.03521
C          2.37734        2.28565       -1.32262
C          1.86374        2.82557       -0.14488
H          1.68512        2.17841        0.71468
C          2.58700        3.08478       -2.44551
H          2.98221        2.63042       -3.35560
C          1.54921        4.18667       -0.06950
C          1.02209        4.76820        1.20931
H          0.42484        4.03465        1.76811
H          1.85159        5.08767        1.86202
H          0.39104        5.64872        1.02252
C          2.27504        4.43919       -2.37365
H          2.43047        5.07566       -3.24808
C          1.75836        4.98569       -1.19949
H          1.51056        6.04947       -1.15850
C          2.80982       -0.35309        1.51126
C          4.03737        0.26283        1.28320
H          4.21529        0.78762        0.34588
C          2.55452       -1.01345        2.71434
H          1.57095       -1.45687        2.87992
C          5.05197        0.18465        2.24369
C          6.38795        0.80721        1.96188
H          6.92760        0.22583        1.19682
H          6.27830        1.83141        1.57429
H          7.01497        0.84567        2.86350
C          3.55931       -1.08202        3.67300
H          3.36847       -1.59970        4.61607
C          4.80244       -0.49646        3.43870
H          5.58784       -0.56202        4.19572
