102
Cat513.ts34.5.log	Energy: -2719143.7120519
C          1.14458       -2.29370       -3.41314
H          0.98912       -1.86160       -4.40481
H          2.16679       -2.63351       -3.22230
C          0.05790       -2.92124       -2.76535
H         -0.93461       -2.89867       -3.22630
H          0.24118       -3.83053       -2.18197
H          0.05384       -2.27759       -1.21155
Co         0.43030       -1.06446       -1.97018
O          2.34763       -1.62752        0.69084
O          3.53920       -1.01804       -1.38899
O          2.13246        0.77768       -0.17129
O         -1.37997        1.30449       -0.91237
O         -2.73955       -0.61674       -1.85332
O         -1.60658       -0.88416        0.42401
P         -1.29352       -0.33453       -1.09138
P          2.06121       -0.77646       -0.71572
C          0.68082        0.28619       -3.04325
O          0.91199        1.18686       -3.71832
C          1.31830       -1.97812        1.53112
C          0.77667       -3.25753        1.44832
H          1.17494       -3.95548        0.70893
C          0.84285       -1.07658        2.48159
H          1.28712       -0.08239        2.55126
C         -0.25287       -3.62549        2.31163
H         -0.67560       -4.63156        2.24246
C         -0.18748       -1.45802        3.33337
H         -0.56386       -0.74065        4.06757
C         -0.76120       -2.73319        3.26152
C         -1.90976       -3.11034        4.14866
H         -2.02452       -4.20130        4.21946
H         -2.85349       -2.70118        3.75211
H         -1.78125       -2.71199        5.16608
C          4.75128       -0.51753       -0.96533
C          5.09558        0.78622       -1.31286
H          4.39207        1.37500       -1.90403
C          5.61909       -1.34376       -0.23871
C          5.25455       -2.76367        0.06890
H          4.42626       -2.81305        0.79120
H          4.90988       -3.28418       -0.83772
H          6.11536       -3.30835        0.47993
C          6.30515        1.32002       -0.88085
H          6.56397        2.35087       -1.13124
C          6.83266       -0.78352        0.17470
H          7.52657       -1.40534        0.74712
C          7.17232        0.53437       -0.12494
H          8.12319        0.94378        0.22323
C          2.91033        1.51693        0.68222
C          3.68046        0.96588        1.70525
H          3.71461       -0.11431        1.83707
C          2.85877        2.90347        0.46209
C          2.03913        3.44979       -0.66582
H          2.09435        4.54618       -0.69774
H          2.38170        3.05442       -1.63562
H          0.98314        3.15378       -0.57610
C          4.42844        1.80912        2.52428
H          5.04481        1.37561        3.31498
C          3.61366        3.72032        1.30651
H          3.58871        4.80182        1.14694
C          4.39623        3.18711        2.32998
H          4.98261        3.84881        2.97120
C         -1.68629        2.01025        0.22397
C         -0.77466        2.05873        1.27660
H          0.16712        1.51811        1.18737
C         -2.89306        2.70048        0.30148
H         -3.59662        2.64996       -0.53089
C         -1.08832        2.78322        2.42236
H         -0.36902        2.81109        3.24560
C         -3.18881        3.42339        1.45439
H         -4.14272        3.95435        1.51564
C         -2.30076        3.47576        2.53623
C         -2.62025        4.27910        3.76361
H         -2.23290        5.30798        3.67451
H         -2.16733        3.83845        4.66369
H         -3.70524        4.35231        3.92693
C         -3.79845        0.25648       -1.98817
C         -4.91352        0.11110       -1.16539
H         -4.92314       -0.67785       -0.41390
C         -3.74889        1.23744       -2.99137
C         -2.55722        1.36561       -3.88689
H         -1.74030        1.90109       -3.37922
H         -2.16487        0.37759       -4.16874
H         -2.80847        1.91976       -4.80141
C         -5.99398        0.97800       -1.30517
H         -6.86210        0.86516       -0.65202
C         -4.84876        2.09476       -3.10715
H         -4.82781        2.86886       -3.87906
C         -5.95871        1.98036       -2.27218
H         -6.80032        2.66724       -2.38689
C         -2.79338       -1.21017        1.02922
C         -3.33639       -0.33978        1.97162
H         -2.82105        0.59547        2.18820
C         -3.39327       -2.44564        0.73703
C         -2.77790       -3.38391       -0.25255
H         -2.92976       -3.02240       -1.28166
H         -1.69314       -3.45835       -0.08931
H         -3.21811       -4.38688       -0.17012
C         -4.52812       -0.67086        2.61094
H         -4.95734        0.01959        3.34034
C         -4.58984       -2.75110        1.39550
H         -5.07744       -3.70489        1.17663
C         -5.16502       -1.87497        2.31481
H         -6.10239       -2.14048        2.80856
