104
Cat588.ts34.5.log	Energy: -2968209.7539068
C         -0.21986       -1.83344        3.19723
H         -0.48419       -1.29001        4.10871
H         -0.79366       -2.75540        3.05686
C          1.13049       -1.79211        2.75444
H          1.84392       -1.16101        3.29416
H          1.59333       -2.71589        2.38742
H          0.99343       -1.53573        1.14758
Co        -0.07837       -0.61493        1.59966
O         -0.76363       -2.95658       -0.62393
C         -2.74356       -2.64433        1.03412
C         -2.15949       -0.67075       -1.16319
O          0.62033        1.48820       -0.85250
C          1.56466        2.32760        1.57951
C          2.75735        0.14203       -0.12122
P          1.17329        0.79560        0.60225
P         -1.40756       -1.63194        0.24111
C         -1.02767        0.56633        2.42874
O         -1.67553        1.35150        2.98059
C          0.51825       -3.03314       -1.04220
C          1.40984       -3.86263       -0.35468
H          1.05236       -4.39279        0.53010
C          0.95890       -2.34936       -2.18055
H          0.27419       -1.68670       -2.71093
C          2.71795       -4.02133       -0.80049
H          3.41558       -4.66779       -0.26552
C          2.26068       -2.51768       -2.64267
H          2.60032       -1.99731       -3.53942
C          3.13637       -3.35008       -1.94827
Cl         4.76998       -3.53638       -2.50308
H         -2.11589       -3.38108        1.57229
C         -3.66687       -3.44285        0.11520
H         -3.07663       -3.98522       -0.63794
H         -4.33151       -2.75013       -0.42828
C         -4.52734       -4.40762        0.92703
H         -5.20275       -4.96491        0.25752
H         -3.87360       -5.15990        1.40472
C         -5.32480       -3.67583        2.00088
H         -5.91017       -4.39083        2.60157
H         -6.05812       -3.00819        1.51260
C         -4.41551       -2.84422        2.89903
H         -3.76010       -3.51939        3.47897
H         -5.01084       -2.28213        3.63660
C         -3.54576       -1.88481        2.09229
H         -4.18953       -1.13378        1.60526
H         -2.86924       -1.32944        2.75670
H         -1.31927       -0.01247       -1.45226
C         -3.30036        0.23734       -0.69351
H         -3.00481        0.80866        0.20030
H         -4.15979       -0.38883       -0.39779
C         -3.73659        1.18378       -1.80828
H         -4.57297        1.81241       -1.46258
H         -2.90773        1.87217       -2.03696
C         -4.11792        0.42930       -3.07563
H         -4.37842        1.13944       -3.87701
H         -5.02442       -0.17494       -2.88793
C         -2.99073       -0.49403       -3.52381
H         -2.11585        0.11554       -3.81586
H         -3.28900       -1.06306       -4.41951
C         -2.58663       -1.45265       -2.40765
H         -3.44377       -2.09990       -2.16798
H         -1.78722       -2.12860       -2.74161
C         -0.27389        2.47424       -1.07052
C         -0.27048        3.03471       -2.35584
H          0.44545        2.65408       -3.08656
C         -1.19358        2.94687       -0.12765
H         -1.25482        2.51003        0.86645
C         -1.15358        4.05316       -2.69075
H         -1.14765        4.48592       -3.69243
C         -2.07360        3.97494       -0.45936
H         -2.79124        4.33702        0.27842
C         -2.05437        4.52692       -1.73629
Cl        -3.16442        5.79237       -2.15001
H          0.55885        2.76922        1.69518
C          2.43736        3.39614        0.92542
H          2.09009        3.61206       -0.09670
H          3.47310        3.02624        0.83984
C          2.43105        4.66935        1.76817
H          3.07975        5.43108        1.30612
H          1.40956        5.09053        1.76984
C          2.86986        4.39470        3.20264
H          2.81868        5.31746        3.80289
H          3.93099        4.08471        3.20140
C          2.03160        3.29475        3.84609
H          0.98941        3.64355        3.95951
H          2.39823        3.07597        4.86207
C          2.03561        2.02242        3.00498
H          3.05533        1.60443        2.98516
H          1.38890        1.25305        3.45366
H          2.43895       -0.83908       -0.51414
C          3.80943       -0.12085        0.96015
H          3.37845       -0.69978        1.78954
H          4.14519        0.84054        1.38449
C          5.02059       -0.84546        0.38263
H          5.76592       -1.01659        1.17628
H          4.71247       -1.84114        0.02009
C          5.63507       -0.05942       -0.76846
H          6.48467       -0.61257       -1.19968
H          6.04293        0.89244       -0.38101
C          4.59755        0.23260       -1.84522
H          4.30249       -0.72001       -2.31342
H          5.03743        0.84836       -2.64675
C          3.35960        0.93042       -1.28749
H          3.63588        1.94280       -0.95445
H          2.60581        1.05822       -2.07622
