86
Cat505.ts34.5.log	Energy: -3585066.4249411
C         -1.45729       -1.72247       -2.89526
H         -1.37388       -2.80768       -2.99478
H         -2.47382       -1.34535       -3.05347
C         -0.34961       -0.90952       -3.25427
H          0.59423       -1.37834       -3.55192
H         -0.53390        0.02701       -3.79197
H         -0.24066        0.16145       -2.01313
Co        -0.54602       -1.06298       -1.22321
O         -2.96584        1.18633       -1.11045
C         -3.78420       -1.19158       -0.43325
C         -2.34518        0.36667        1.38724
O          1.39381       -0.98361        1.30484
C          2.79939       -0.96804       -1.02157
C          1.49717        1.36718       -0.05440
P          1.21710       -0.42322       -0.27896
P         -2.27418       -0.16041       -0.36932
C         -0.48978       -2.67280       -0.56545
O         -0.47418       -3.72453       -0.09221
C         -2.21463        2.21829       -1.59969
C         -1.97006        2.29820       -2.97027
H         -2.35441        1.51040       -3.62154
C         -1.74818        3.22485       -0.75420
H         -1.93500        3.15768        0.31839
C         -1.25965        3.37884       -3.48737
H         -1.06989        3.42713       -4.56352
C         -1.05673        4.30776       -1.28777
H         -0.70276        5.09564       -0.61868
C         -0.79260        4.40515       -2.65833
C         -0.04854        5.58387       -3.21633
H          0.56961        5.29891       -4.08082
H          0.60603        6.03738       -2.45768
H         -0.74368        6.36845       -3.55941
C         -4.88893       -0.85485       -1.21952
H         -4.88308        0.08105       -1.78047
C         -3.80223       -2.39076        0.29000
H         -2.94403       -2.67718        0.90357
C         -5.99714       -1.69803       -1.28284
H         -6.86241       -1.43889       -1.89529
C         -4.90367       -3.23608        0.23846
H         -4.92067       -4.16907        0.80376
C         -5.99814       -2.88359       -0.55287
Cl        -7.37240       -3.93563       -0.62706
C         -1.47100       -0.20860        2.31210
H         -0.72204       -0.93188        1.98252
C         -3.28391        1.30898        1.82607
H         -3.97839        1.75146        1.10779
C         -1.51825        0.15616        3.65670
H         -0.83321       -0.28882        4.38040
C         -3.33220        1.69100        3.16162
H         -4.05455        2.43148        3.50929
C         -2.44418        1.11099        4.07067
Cl        -2.49616        1.58900        5.73386
C          2.59619       -1.32855        1.86709
C          3.34288       -0.40053        2.58788
H          2.97087        0.61823        2.70552
C          3.06446       -2.63466        1.71496
H          2.45844       -3.34978        1.15514
C          4.56800       -0.78046        3.13570
H          5.15079       -0.04509        3.69720
C          4.28910       -2.99600        2.26170
H          4.65214       -4.01874        2.12702
C          5.06863       -2.07571        2.97709
C          6.39267       -2.48155        3.55642
H          6.89608       -1.63490        4.04365
H          7.06600       -2.87218        2.77712
H          6.27277       -3.27821        4.30807
C          2.79017       -2.12588       -1.80553
H          1.83320       -2.60535       -2.02666
C          4.02668       -0.35574       -0.73150
H          4.05856        0.54648       -0.11797
C          3.97496       -2.67751       -2.28339
H          3.96922       -3.58345       -2.89131
C          5.21798       -0.89542       -1.20060
H          6.17551       -0.42811       -0.96622
C          5.18407       -2.05831       -1.97167
Cl         6.66534       -2.73883       -2.54868
C          1.15879        2.00334        1.14360
H          0.75922        1.41878        1.97486
C          1.97134        2.13562       -1.12386
H          2.22048        1.65799       -2.07507
C          1.32073        3.37922        1.28642
H          1.05569        3.87907        2.21948
C          2.14220        3.50824       -0.99229
H          2.51516        4.10811       -1.82346
C          1.81747        4.12006        0.21708
Cl         1.98969        5.83835        0.37316
