92
Cat537.ts34.5.log	Energy: -2605571.7312386
C         -2.17680        0.50790       -2.73737
H         -2.06057       -0.11767       -3.62642
H         -3.21190        0.59295       -2.39146
C         -1.28108        1.58420       -2.52971
H         -0.44728        1.74399       -3.22075
H         -1.66963        2.51680       -2.10643
H         -0.83799        1.41547       -0.88634
Co        -0.83880       -0.00339       -1.30999
O         -3.00124        0.78674        1.07529
C         -3.72261       -1.44246       -0.19951
C         -1.63838       -1.38160        1.71172
O          1.65349       -1.33203        0.10801
C          2.45285        0.71779       -1.49168
C          1.24629        1.19562        1.05127
P          1.06554        0.15689       -0.43940
P         -2.23026       -0.46782        0.24123
C         -0.45280       -1.47553       -2.14752
O         -0.19361       -2.46963       -2.67625
C         -2.95829        2.07107        0.62671
C         -3.92818        2.53902       -0.26214
H         -4.70882        1.85692       -0.60493
C         -1.95278        2.92555        1.08110
H         -1.20477        2.54113        1.77564
C         -3.89128        3.86024       -0.70222
H         -4.63618        4.25036       -1.39799
C         -1.90917        4.24563        0.64197
H         -1.12929        4.93045        0.97907
C         -2.87815        4.69631       -0.24711
F         -2.83699        5.96130       -0.66976
C         -4.96123       -1.19689        0.40008
H         -5.05401       -0.40090        1.14134
C         -3.60836       -2.45854       -1.15321
H         -2.64541       -2.64074       -1.63538
C         -6.06485       -1.96795        0.04003
H         -7.03638       -1.77296        0.50141
C         -4.70399       -3.24918       -1.51063
C         -4.55962       -4.35566       -2.51497
H         -3.61022       -4.27828       -3.06316
H         -4.57892       -5.34108       -2.02087
H         -5.38129       -4.34461       -3.24720
C         -5.93789       -2.98418       -0.90327
H         -6.81219       -3.58084       -1.17907
C         -1.94952       -0.98943        3.01830
H         -2.61570       -0.14141        3.18275
C         -0.77436       -2.45688        1.49734
H         -0.50800       -2.74087        0.47625
C         -1.37673       -1.66900        4.08957
H         -1.60952       -1.36367        5.11306
C         -0.18790       -3.14362        2.56586
C          0.77896       -4.26025        2.30143
H          0.32195       -5.04341        1.67690
H          1.66197       -3.88883        1.75703
H          1.12484       -4.72718        3.23420
C         -0.49831       -2.73000        3.86616
H         -0.04271       -3.24632        4.71579
C          2.97788       -1.64613        0.20702
C          3.67735       -1.43321        1.39624
H          3.15741       -1.00845        2.25547
C          3.62850       -2.19799       -0.89932
H          3.05853       -2.36144       -1.81559
C          5.03384       -1.74395        1.46986
H          5.60559       -1.58119        2.38529
C          4.98243       -2.50722       -0.83156
H          5.51444       -2.92685       -1.68710
C          5.67164       -2.26613        0.35175
F          6.97548       -2.54312        0.41452
C          2.31173        0.61318       -2.87839
H          1.34855        0.30412       -3.29116
C          3.68426        1.11048       -0.95287
H          3.79847        1.19397        0.13071
C          3.39629        0.88904       -3.70756
H          3.28676        0.81305       -4.79199
C          4.78669        1.36981       -1.77063
C          6.11895        1.70596       -1.16693
H          6.00660        2.31399       -0.25746
H          6.65400        0.78570       -0.87840
H          6.75903        2.25436       -1.87262
C          4.62143        1.25781       -3.15694
H          5.47036        1.46394       -3.81502
C          1.00538        0.65405        2.31702
H          0.80631       -0.41345        2.42819
C          1.47062        2.57123        0.91947
H          1.63868        2.99811       -0.07363
C          0.99771        1.49012        3.43247
H          0.79627        1.06663        4.41925
C          1.47534        3.41759        2.03144
C          1.74640        4.88660        1.88152
H          1.09291        5.48537        2.53375
H          2.78619        5.12684        2.15883
H          1.59766        5.21989        0.84464
C          1.23101        2.85584        3.29221
H          1.21774        3.50197        4.17445
