102
Cat511.ts34.5.log	Energy: -2719138.5314780
C         -0.99640        0.99463       -4.08903
H         -0.90925        0.28978       -4.91958
H         -1.98574        1.45272       -3.99485
C          0.15341        1.70976       -3.67484
H          1.12705        1.48961       -4.12305
H          0.04425        2.76127       -3.38479
H          0.16667        1.55321       -2.02392
Co        -0.28673        0.18533       -2.38099
O         -2.30186        1.76605       -0.31133
O         -3.41851        0.21063       -1.88944
O         -2.02428       -0.74909        0.07940
O          1.70318       -1.76952       -0.86192
O          2.79681        0.36369       -1.78072
O          1.35717        0.49245        0.28767
P          1.35319       -0.19671       -1.20450
P         -1.96137        0.35832       -1.15473
C         -0.37935       -1.41102       -3.08318
O         -0.45212       -2.46528       -3.53159
C         -1.29978        2.40738        0.37507
C         -0.63283        3.47466       -0.22192
H         -0.93203        3.79449       -1.22201
C         -0.95353        2.00305        1.66361
H         -1.46966        1.16033        2.12457
C          0.39649        4.11609        0.46481
H          0.91748        4.95160       -0.01167
C          0.07283        2.65419        2.33697
H          0.35053        2.31251        3.33757
C          0.77808        3.71003        1.74784
C          1.92379        4.35664        2.46933
H          1.65338        4.61961        3.50341
H          2.25683        5.27326        1.96172
H          2.78511        3.67031        2.52234
C         -4.68927        0.30034       -1.36841
C         -5.21873        1.52113       -0.96046
H         -4.61071        2.42181       -1.04172
C         -5.45665       -0.86038       -1.29349
H         -5.02490       -1.80270       -1.63370
C         -6.50300        1.55899       -0.42098
H         -6.91049        2.51771       -0.08798
C         -6.73426       -0.80428       -0.75160
H         -7.32087       -1.72406       -0.67570
C         -7.27724        0.40202       -0.28996
C         -8.63520        0.43844        0.34915
H         -9.04323        1.45891        0.37475
H         -8.59104        0.07509        1.38998
H         -9.35225       -0.20170       -0.18668
C         -3.08681       -1.14248        0.85624
C         -3.35513       -2.50752        0.92253
H         -2.72062       -3.19455        0.35922
C         -3.86950       -0.24055        1.57889
H         -3.66533        0.82758        1.52054
C         -4.43227       -2.96433        1.67739
H         -4.64128       -4.03716        1.71374
C         -4.94720       -0.71422        2.31860
H         -5.57118        0.00366        2.85800
C         -5.25860       -2.07790        2.37572
C         -6.46252       -2.56078        3.13090
H         -6.39679       -3.63502        3.35511
H         -7.38309       -2.40231        2.54375
H         -6.58797       -2.02082        4.08146
C          2.94784       -2.34877       -0.81341
C          3.52674       -2.66353        0.41341
H          2.99578       -2.42982        1.33651
C          3.61226       -2.64804       -2.00200
H          3.13925       -2.39947       -2.95345
C          4.78643       -3.25686        0.44084
H          5.23928       -3.49066        1.40826
C          4.87148       -3.23807       -1.95575
H          5.39108       -3.45867       -2.89229
C          5.48555       -3.55004       -0.73565
C          6.83343       -4.21012       -0.69544
H          7.35468       -4.00476        0.25067
H          7.47527       -3.86824       -1.52070
H          6.74083       -5.30535       -0.78749
C          3.74776        1.04986       -1.06434
C          4.94602        0.42876       -0.72227
H          5.11418       -0.61083       -1.00570
C          3.51611        2.37668       -0.70306
H          2.56382        2.84301       -0.96006
C          5.90390        1.14108       -0.00369
H          6.83760        0.64251        0.27067
C          4.48324        3.07258        0.01466
H          4.28826        4.10908        0.30297
C          5.69357        2.46964        0.38237
C          6.73920        3.23661        1.13905
H          7.40793        2.56467        1.69598
H          6.28565        3.93783        1.85527
H          7.36755        3.83169        0.45524
C          1.64917       -0.07944        1.49578
C          2.78593        0.32604        2.18929
H          3.45438        1.06180        1.74037
C          0.78246       -1.02336        2.04621
H         -0.10614       -1.31822        1.48542
C          3.05776       -0.23154        3.43690
H          3.95682        0.08348        3.97384
C          1.07370       -1.57236        3.29088
H          0.39418       -2.31804        3.71306
C          2.21448       -1.19014        4.01043
C          2.50240       -1.77355        5.36371
H          3.55020       -1.61522        5.65620
H          2.30167       -2.85521        5.38734
H          1.86975       -1.31047        6.13935
