110
Cat579.ts34.5.log	Energy: -2628989.7751029
C         -1.27729        1.77470        3.54554
H         -0.92058        2.76942        3.82662
H         -2.36910        1.69417        3.54735
C         -0.50778        0.64283        3.94055
H          0.46103        0.79800        4.42781
H         -1.03543       -0.23213        4.33969
H         -0.49296       -0.28598        2.61380
Co        -0.31664        1.03279        1.94354
O         -2.15356       -1.03252        0.35659
C         -3.63589        1.17328        1.15726
C         -1.82833        1.25130       -1.12697
O          2.13616        0.37408       -0.20191
C          2.67045       -0.41793        2.40406
C          0.88440       -1.83981        0.63631
P          1.30053       -0.10518        1.17357
P         -1.94220        0.62226        0.61584
C          0.24124        2.65800        1.64845
O          0.54985        3.76172        1.53398
C         -3.08220       -1.81865       -0.25795
C         -3.49481       -1.63193       -1.57644
H         -3.11028       -0.79478       -2.15614
C         -3.55152       -2.90856        0.49711
C         -3.07670       -3.09038        1.90566
H         -1.98673       -3.24538        1.94224
H         -3.27852       -2.19388        2.51418
H         -3.56533       -3.95180        2.38108
C         -4.41616       -2.50895       -2.14435
H         -4.74868       -2.34462       -3.17167
C         -4.46181       -3.78024       -0.10172
H         -4.83572       -4.62914        0.47770
C         -4.90269       -3.58634       -1.41023
H         -5.62110       -4.27858       -1.85459
H         -3.72866        0.79765        2.18765
H         -3.52952        2.26743        1.24061
C         -4.83720        0.77960        0.35339
C         -5.21305        1.46411       -0.80826
H         -4.65946        2.34855       -1.13020
C         -5.60882       -0.31849        0.75342
H         -5.33628       -0.84918        1.67009
C         -6.30079        1.02693       -1.56203
H         -6.57966        1.56577       -2.47093
C         -6.70254       -0.76969        0.01390
C         -7.51731       -1.94153        0.47638
H         -7.76452       -2.60862       -0.36249
H         -6.97690       -2.53293        1.22825
H         -8.46819       -1.60939        0.92544
C         -7.03274       -0.08627       -1.16318
H         -7.87943       -0.42698       -1.76545
H         -1.13541        0.55648       -1.62469
H         -2.80841        1.16410       -1.61899
C         -1.29426        2.64922       -1.22341
C         -2.07318        3.75669       -0.86581
H         -3.09806        3.62038       -0.51465
C          0.01192        2.86838       -1.67144
H          0.63036        2.00586       -1.93579
C         -1.55134        5.04291       -0.96132
H         -2.16699        5.90043       -0.67910
C          0.54861        4.15465       -1.78451
C          1.95805        4.35922       -2.24990
H          2.25333        3.60555       -2.99343
H          2.09556        5.35686       -2.69126
H          2.66021        4.26665       -1.40609
C         -0.25277        5.24134       -1.42045
H          0.14893        6.25522       -1.49772
C          3.07396        1.34346       -0.34744
C          3.35307        2.31129        0.61831
H          2.76116        2.36131        1.53043
C          3.80368        1.30181       -1.55277
C          3.47344        0.26833       -2.58035
H          4.13137        0.35391       -3.45577
H          3.56123       -0.74524       -2.16184
H          2.42830        0.35516       -2.91690
C          4.38921        3.22323        0.41499
H          4.59703        3.97340        1.18119
C          4.83627        2.22413       -1.72581
H          5.41393        2.18998       -2.65380
C          5.14308        3.17694       -0.75282
H          5.95911        3.88426       -0.91448
H          3.08981        0.56436        2.66461
H          2.12373       -0.76654        3.29445
C          3.73917       -1.39158        2.01555
C          3.72044       -2.70459        2.50192
H          2.94645       -3.00861        3.21240
C          4.75864       -1.02555        1.12789
H          4.80027       -0.00074        0.75450
C          4.68239       -3.62504        2.08884
H          4.65505       -4.64772        2.47263
C          5.72304       -1.93733        0.69336
C          6.79514       -1.50959       -0.26633
H          6.49409       -0.61157       -0.82479
H          7.73020       -1.27015        0.26688
H          7.02749       -2.30633       -0.98860
C          5.67070       -3.24900        1.18319
H          6.41382       -3.98001        0.85257
H          1.32842       -2.50494        1.39199
H         -0.20693       -1.89524        0.73019
C          1.30265       -2.26680       -0.73808
C          0.44925       -2.05986       -1.82708
H         -0.52917       -1.60508       -1.66173
C          2.53069       -2.89687       -0.95875
H          3.19915       -3.07194       -0.11386
C          0.82912       -2.46406       -3.10411
H          0.15008       -2.30777       -3.94611
C          2.92846       -3.30756       -2.23481
C          4.27706       -3.93301       -2.44518
H          4.63036       -4.43897       -1.53542
H          4.26388       -4.66179       -3.26885
H          5.02649       -3.16406       -2.70045
C          2.06086       -3.08160       -3.30953
H          2.35106       -3.39943       -4.31493
