80
Cat534.ts34.5.log	Energy: -3660252.0282879
C         -1.50493       -0.64901       -3.28941
H         -1.35575       -1.60167       -3.80546
H         -2.54338       -0.30130       -3.28843
C         -0.46173        0.31130       -3.30906
H          0.49836        0.06216       -3.77305
H         -0.72627        1.36926       -3.42013
H         -0.40518        0.82262       -1.71363
Co        -0.57635       -0.63073       -1.49322
O         -3.14426        1.22712       -0.62223
C         -3.68206       -1.30707       -0.22269
C         -1.99957        0.10770        1.52419
O          1.34040       -1.31293        0.92672
C          2.78794       -0.58173       -1.27605
C          1.46246        1.34326        0.33049
P          1.19910       -0.30309       -0.41373
P         -2.24979       -0.16861       -0.26799
C         -0.38849       -2.36170       -1.48150
O         -0.26274       -3.50702       -1.43571
C         -2.64966        2.26026       -1.35648
C         -3.30211        2.59975       -2.54433
H         -4.16824        2.01108       -2.85179
C         -1.53807        2.99691       -0.93672
H         -1.02561        2.73415       -0.00950
C         -2.85264        3.67043       -3.31123
H         -3.34861        3.95344       -4.24134
C         -1.08341        4.06808       -1.70291
H         -0.22210        4.65828       -1.38767
C         -1.74345        4.39085       -2.88149
F         -1.30720        5.41591       -3.61423
C         -4.73046       -1.10948        0.68572
H         -4.68375       -0.28509        1.40122
C         -3.75909       -2.36948       -1.12597
H         -2.94878       -2.52957       -1.83884
C         -5.83261       -1.95537        0.69416
H         -6.65071       -1.80647        1.40065
C         -4.85423       -3.22979       -1.12484
H         -4.91282       -4.06473       -1.82464
C         -5.88569       -3.01509       -0.21362
Cl        -7.25094       -4.07756       -0.20167
C         -1.37264       -0.90123        2.26674
H         -1.08082       -1.83574        1.78207
C         -2.34494        1.30522        2.15655
H         -2.85219        2.08809        1.58923
C         -1.07028       -0.71034        3.60994
H         -0.56760       -1.48816        4.18689
C         -2.03903        1.51267        3.50034
H         -2.29365        2.45190        3.99429
C         -1.39141        0.50733        4.21508
Cl        -0.96184        0.77789        5.87076
C          2.52350       -1.76856        1.44093
C          3.14302       -1.10483        2.50040
H          2.68588       -0.20604        2.91553
C          3.09339       -2.92684        0.90795
H          2.58504       -3.43447        0.08612
C          4.34283       -1.59004        3.01706
H          4.84803       -1.09075        3.84575
C          4.29262       -3.41232        1.41734
H          4.76082       -4.31147        1.01325
C          4.90625       -2.73344        2.46456
F          6.05753       -3.19307        2.95246
C          2.78476       -1.35197       -2.44287
H          1.82962       -1.70089       -2.84329
C          4.01304       -0.12908       -0.76480
H          4.03853        0.47493        0.14456
C          3.97408       -1.68226       -3.08590
H          3.97361       -2.28483       -3.99541
C          5.20819       -0.45164       -1.39512
H          6.16368       -0.10990       -0.99452
C          5.18066       -1.23142       -2.55311
Cl         6.66508       -1.63895       -3.33823
C          1.04719        1.61297        1.63782
H          0.65412        0.80730        2.25967
C          1.94404        2.39455       -0.45988
H          2.26475        2.20621       -1.48786
C          1.10857        2.90507        2.15342
H          0.77578        3.11150        3.17186
C          2.01858        3.68769        0.04587
H          2.40210        4.50690       -0.56477
C          1.59113        3.93773        1.35102
Cl         1.65313        5.55044        1.97198
