86
Cat504.ts34.5.log	Energy: -2680752.1772357
C         -0.02841       -3.54770       -1.04812
H          0.53918       -4.28294       -0.47147
H         -1.08864       -3.79347       -1.16895
C          0.63687       -2.81273       -2.05559
H          1.71454       -2.93344       -2.20721
H          0.09920       -2.59719       -2.98554
H          0.21103       -1.19250       -1.78099
Co         0.31944       -1.66746       -0.37864
O         -2.12470        0.22592       -1.21290
C         -3.01287       -2.13990       -0.26102
C         -2.08339       -0.11667        1.50879
O          2.17188        0.46695        1.17545
C          3.18072       -0.19281       -1.27782
C          0.99988        1.60542       -0.92434
P          1.61502       -0.01596       -0.35082
P         -1.65436       -0.93083       -0.06911
C          0.80447       -2.35423        1.13842
O          1.07555       -2.80726        2.16468
C         -3.05000        1.20733       -0.98917
C         -2.66522        2.38215       -0.33829
H         -1.63630        2.48148        0.00971
C         -4.36472        1.06119       -1.42740
H         -4.66566        0.14155       -1.93071
C         -3.59199        3.39486       -0.12880
H         -3.27527        4.30684        0.38506
C         -5.28449        2.08703       -1.20963
H         -6.31399        1.96087       -1.55635
C         -4.92071        3.26858       -0.55736
C         -5.90834        4.37692       -0.33363
H         -5.90382        4.71306        0.71489
H         -6.93124        4.06211       -0.58385
H         -5.66885        5.25554       -0.95488
C         -3.39441       -2.96807        0.80248
H         -2.97139       -2.80715        1.79758
C         -3.54558       -2.38545       -1.53256
H         -3.23250       -1.76139       -2.37310
C         -4.31159       -3.99718        0.61180
H         -4.62487       -4.64465        1.43280
C         -4.46578       -3.41034       -1.73740
H         -4.89557       -3.60821       -2.72113
C         -4.83969       -4.20188       -0.65811
F         -5.71984       -5.18267       -0.84524
C         -3.41063        0.11754        1.90077
H         -4.23453       -0.25053        1.28595
C         -1.04397        0.37450        2.30781
H         -0.00443        0.20318        2.01980
C         -3.69570        0.82954        3.05913
H         -4.72199        1.02641        3.37351
C         -1.31547        1.09037        3.47050
H         -0.51464        1.47677        4.10325
C         -2.63976        1.31007        3.82741
F         -2.90827        1.99582        4.93478
C          3.46853        0.33830        1.59878
C          4.42931        1.28246        1.23192
H          4.14306        2.11891        0.59205
C          3.82275       -0.73020        2.41885
H          3.06258       -1.45895        2.70404
C          5.74019        1.14138        1.67260
H          6.48544        1.88389        1.37356
C          5.14018       -0.85430        2.85657
H          5.40867       -1.69644        3.50036
C          6.12395        0.06852        2.48805
C          7.54924       -0.08592        2.93373
H          7.94970        0.85676        3.33738
H          8.19879       -0.37910        2.09248
H          7.64658       -0.85594        3.71185
C          3.74279        0.82316       -2.05861
H          3.21889        1.77436       -2.17593
C          3.86775       -1.40616       -1.13895
H          3.42173       -2.20302       -0.53748
C          4.97197        0.63789       -2.68459
H          5.42523        1.41596       -3.30140
C          5.10560       -1.59729       -1.74094
H          5.66156       -2.52984       -1.63063
C          5.64032       -0.56810       -2.50859
F          6.82002       -0.74517       -3.09556
C          0.34513        1.68922       -2.16024
H          0.18454        0.78672       -2.75377
C          1.15297        2.76504       -0.15671
H          1.64153        2.70090        0.81689
C         -0.12388        2.90751       -2.63613
H         -0.64319        2.98732       -3.59231
C          0.67678        3.99148       -0.61767
H          0.78165        4.90419       -0.02838
C          0.04787        4.04562       -1.85476
F         -0.41276        5.21130       -2.29838
