100
Cat547.ts34.5.log	Energy: -2420455.1450196
C         -0.46829       -3.37991       -2.13357
H         -0.14020       -4.38528       -1.85483
H         -1.53588       -3.32330       -2.37240
C          0.43665       -2.54205       -2.84984
H          1.46242       -2.88293       -3.02577
H          0.05106       -1.95426       -3.69150
H          0.18858       -1.09087       -2.08865
Co         0.25051       -1.97256       -0.90407
O         -1.39334        0.69432       -0.61448
C         -3.15221       -1.42599       -0.97451
C         -1.84132       -0.91193        1.55112
O          1.24003        0.15325        1.19069
C          3.37910       -1.14975        0.16884
C          2.00880        0.84006       -1.40896
P          1.69684       -0.57209       -0.27605
P         -1.51693       -0.97264       -0.25283
C          0.76121       -3.18817        0.22453
O          1.10112       -3.99716        0.97690
C         -2.40426        1.60167       -0.57624
C         -2.75061        2.25044        0.61413
H         -2.20900        2.01294        1.53086
C         -3.06893        1.93328       -1.76102
H         -2.77078        1.43809       -2.68677
C         -3.77972        3.18896        0.62745
H         -4.06929        3.70170        1.54651
C         -4.09773        2.87013       -1.75395
H         -4.63314        3.13632       -2.66719
C         -4.44790        3.48155       -0.55531
F         -5.43558        4.37646       -0.54347
H         -3.12357       -2.52876       -1.01435
H         -3.10339       -1.09842       -2.02659
C         -4.43822       -0.97023       -0.29626
H         -4.46743       -1.38214        0.72570
H         -4.45532        0.12535       -0.18127
C         -5.71675       -1.39919       -1.02344
H         -5.66905       -2.49547       -1.16761
C         -6.93607       -1.08942       -0.16243
H         -6.87654       -1.58971        0.81680
H         -7.86787       -1.41402       -0.65087
H         -7.01648       -0.00497        0.02164
C         -5.84867       -0.74710       -2.39577
H         -6.77560       -1.06505       -2.89748
H         -5.01152       -1.00357       -3.06255
H         -5.87696        0.35117       -2.30095
H         -2.69000       -0.24846        1.77926
H         -0.92849       -0.44543        1.95106
C         -2.05557       -2.29454        2.15914
H         -3.10546       -2.60084        2.01258
H         -1.44580       -3.04484        1.62631
C         -1.71010       -2.37098        3.65027
H         -2.21267       -1.52324        4.15402
C         -2.24446       -3.66357        4.25544
H         -3.33731       -3.74256        4.14286
H         -2.01010       -3.73217        5.32912
H         -1.79255       -4.53921        3.76034
C         -0.20738       -2.24606        3.88440
H          0.02541       -2.22918        4.96040
H          0.21248       -1.33250        3.43675
H          0.32289       -3.10088        3.43437
C          1.63717        1.37785        1.63041
C          0.94306        2.52018        1.22125
H          0.09377        2.40235        0.54747
C          2.71193        1.49379        2.51569
H          3.22603        0.59018        2.84805
C          1.34869        3.77775        1.65790
H          0.82799        4.68400        1.34314
C          3.11983        2.75007        2.95754
H          3.96025        2.86789        3.64400
C          2.43981        3.87847        2.51378
F          2.83609        5.08252        2.92707
H          3.24182       -1.84132        1.01722
H          3.97538       -0.29655        0.52814
C          4.04894       -1.86648       -0.99546
H          3.35152       -2.63331       -1.37329
H          4.20432       -1.16080       -1.83285
C          5.38738       -2.52608       -0.65742
H          5.20592       -3.22239        0.18279
C          5.88586       -3.34245       -1.84392
H          5.14667       -4.09913       -2.14942
H          6.82564       -3.86469       -1.60700
H          6.07721       -2.69230       -2.71421
C          6.43579       -1.51231       -0.21278
H          7.39399       -2.00515        0.01312
H          6.12738       -0.96407        0.69012
H          6.62311       -0.76999       -1.00743
H          1.06194        1.40635       -1.40782
H          2.05419        0.36341       -2.40169
C          3.21533        1.74223       -1.17671
H          3.32197        1.97616       -0.10764
H          4.13957        1.20858       -1.46244
C          3.14898        3.06618       -1.94210
H          2.20376        3.56031       -1.64744
C          4.29756        3.97558       -1.52335
H          4.28211        4.16297       -0.43819
H          4.24702        4.94920       -2.03494
H          5.27097        3.51988       -1.77124
C          3.12492        2.86312       -3.45254
H          3.07301        3.82677       -3.98240
H          2.26095        2.26297       -3.77588
H          4.03869        2.34622       -3.79194
