104
Cat550.ts34.5.log	Energy: -2704171.1906711
C         -1.37445        1.79760        3.77257
H         -1.05739        2.81933        3.99918
H         -2.46242        1.67388        3.76573
C         -0.56835        0.71457        4.22886
H          0.38992        0.92530        4.71647
H         -1.06552       -0.16180        4.66064
H         -0.54638       -0.29269        2.91032
Co        -0.36708        1.01028        2.22549
O         -2.08126       -1.07513        0.55000
C         -3.67830        1.06764        1.32714
C         -1.73197        1.20397       -0.87935
O          1.47392        0.43049       -0.25899
C          2.83486        0.12698        2.20240
C          0.99081       -1.89582        1.11021
P          1.20547       -0.06093        1.32303
P         -1.94010        0.58984        0.85572
C          0.37581        2.55108        1.90323
O          0.89914        3.56228        1.71348
C         -3.08912       -1.78642       -0.02622
C         -3.72898       -2.75114        0.75614
H         -3.41729       -2.86919        1.79551
C         -3.44676       -1.63772       -1.36946
H         -2.93142       -0.91109       -1.99574
C         -4.75093       -3.52926        0.22152
H         -5.27023       -4.28009        0.81973
C         -4.47825       -2.40226       -1.90527
H         -4.79185       -2.28078       -2.94326
C         -5.12156       -3.33361       -1.10211
F         -6.12860       -4.05075       -1.61206
H         -3.85877        0.52531        2.26887
H         -3.56848        2.12683        1.61253
C         -4.82634        0.87511        0.38037
C         -4.99704        1.69176       -0.74440
H         -4.30889        2.51850       -0.93497
C         -5.77374       -0.12812        0.61982
H         -5.66662       -0.75320        1.51019
C         -6.05685        1.46694       -1.62149
H         -6.17762        2.10961       -2.49710
C         -6.84286       -0.36658       -0.24531
C         -7.82827       -1.46639        0.02465
H         -7.72194       -1.85853        1.04586
H         -8.86401       -1.11585       -0.10158
H         -7.68051       -2.30871       -0.66959
C         -6.96593        0.44131       -1.38316
H         -7.79361        0.27322       -2.07782
H         -1.00300        0.50147       -1.31053
H         -2.67913        1.09418       -1.43074
C         -1.19404        2.60002       -1.00262
C         -1.78691        3.69339       -0.36239
H         -2.66624        3.55578        0.26982
C         -0.05589        2.82722       -1.78471
H          0.41989        1.97747       -2.28074
C         -1.24605        4.96962       -0.50223
H         -1.70962        5.81270        0.01550
C          0.49591        4.09999       -1.94406
C          1.70290        4.31425       -2.81040
H          2.15605        3.36031       -3.11316
H          1.43875        4.87086       -3.72461
H          2.47295        4.90029       -2.28561
C         -0.11388        5.17338       -1.28333
H          0.30723        6.17788       -1.38078
C          2.61929        0.85475       -0.85636
C          3.18176        0.07691       -1.87124
H          2.70503       -0.86375       -2.14637
C          3.19347        2.08174       -0.51191
H          2.70785        2.71592        0.23177
C          4.34964        0.49577       -2.50036
H          4.81493       -0.10279       -3.28573
C          4.37209        2.49591       -1.13048
H          4.84834        3.44195       -0.86732
C          4.94303        1.69043       -2.10770
F          6.08719        2.06806       -2.68296
H          3.14792        1.16583        2.01675
H          2.50635        0.09891        3.25348
C          3.95807       -0.84102        1.98424
C          4.05851       -1.98899        2.77936
H          3.33003       -2.16286        3.57645
C          4.93263       -0.62477        1.00223
H          4.88539        0.27903        0.39364
C          5.08554       -2.90767        2.56826
H          5.15031       -3.80240        3.19216
C          5.97007       -1.53212        0.77784
C          7.00819       -1.26546       -0.27335
H          7.98681       -1.04750        0.18434
H          7.14669       -2.13976       -0.92796
H          6.73295       -0.40756       -0.90191
C          6.02882       -2.68773        1.56868
H          6.83060       -3.41367        1.40674
H          1.51189       -2.37158        1.95495
H         -0.08865       -2.04955        1.24037
C          1.43715       -2.46454       -0.20298
C          0.56252       -2.43787       -1.29673
H         -0.44134       -2.02888       -1.16667
C          2.71303       -3.00891       -0.37594
H          3.40112       -3.03985        0.47052
C          0.96748       -2.93823       -2.53079
H          0.27530       -2.92095       -3.37632
C          3.13877       -3.50673       -1.61213
C          4.53529       -4.03024       -1.78181
H          4.57226       -4.86748       -2.49431
H          5.20038       -3.23984       -2.16892
H          4.95661       -4.36571       -0.82376
C          2.24829       -3.46563       -2.69114
H          2.55951       -3.85537       -3.66447
