98
Cat507.ts34.5.log	Energy: -2530380.5850756
C         -1.27198       -2.47589       -2.22872
H         -2.22501       -2.30865       -2.73880
H         -0.43078       -2.71156       -2.88664
C         -1.26016       -2.93855       -0.91062
H         -2.19854       -3.12607       -0.37890
H         -0.41811       -3.55239       -0.57646
H         -0.60134       -1.68683        0.26428
Co        -0.84979       -0.90134       -0.96412
O          1.56095       -0.61093        1.06402
C          2.03204       -2.32216       -1.01378
C          2.33092        0.56705       -1.29849
O         -1.91982        1.22337        1.26027
C         -3.94577        0.46263       -0.40301
C         -2.93585       -1.20696        1.64995
P         -2.34416       -0.10510        0.30987
P          1.23608       -0.72871       -0.59250
C         -1.06254        0.16742       -2.30955
O         -1.19885        0.85402       -3.22638
C          2.66724       -0.12201        1.69651
C          3.42376       -0.97690        2.50009
H          3.14187       -2.02767        2.57746
C          3.01706        1.22832        1.61349
H          2.41520        1.90162        1.00517
C          4.52975       -0.48839        3.19124
H          5.11335       -1.17311        3.81292
C          4.13050        1.69773        2.30200
H          4.39718        2.75497        2.21449
C          4.91196        0.85390        3.10064
C          6.09595        1.38294        3.85726
H          5.77991        1.92074        4.76684
H          6.67881        2.09115        3.24919
H          6.76825        0.57206        4.17204
C          2.20271       -3.27641       -0.00385
H          1.95898       -3.00257        1.02394
C          2.27548       -2.67782       -2.35908
C          2.08147       -1.71442       -3.49454
H          2.90837       -0.98943       -3.55933
H          1.16055       -1.12496       -3.37227
H          2.02537       -2.24881       -4.45312
C          2.65863       -4.55898       -0.29340
H          2.79117       -5.28618        0.51116
C          2.73142       -3.97379       -2.62697
H          2.92717       -4.25474       -3.66568
C          2.93275       -4.90738       -1.61350
H          3.28877       -5.91073       -1.85870
C          1.66252        1.73614       -1.68349
H          0.58435        1.80376       -1.53715
C          3.74107        0.49799       -1.42246
C          4.58202       -0.67364       -1.00439
H          4.53416       -1.49449       -1.73623
H          4.26964       -1.09158       -0.04011
H          5.63245       -0.36501       -0.91276
C          2.34143        2.82371       -2.22191
H          1.78683        3.71634       -2.51626
C          4.40068        1.60683       -1.96780
H          5.48871        1.56540       -2.06696
C          3.72194        2.75296       -2.37248
H          4.27794        3.59335       -2.79576
C         -1.24354        2.29438        0.77230
C         -0.17120        2.78585        1.52157
H          0.11522        2.26228        2.43494
C         -1.60940        2.94101       -0.41008
H         -2.44750        2.56710       -1.00063
C          0.51504        3.91580        1.09426
H          1.35285        4.28617        1.69243
C         -0.90350        4.06912       -0.82833
H         -1.19928        4.56048       -1.75938
C          0.16612        4.58107       -0.08906
C          0.92488        5.79663       -0.53639
H          2.00185        5.58266       -0.62795
H          0.81877        6.62408        0.18364
H          0.56824        6.15705       -1.51184
C         -4.21625        0.04154       -1.70962
H         -3.46982       -0.56862       -2.22127
C         -4.90153        1.23837        0.29516
C         -4.70981        1.71683        1.70448
H         -3.98804        2.54624        1.74746
H         -4.31439        0.92461        2.35501
H         -5.66399        2.06937        2.12002
C         -5.40369        0.37849       -2.35352
H         -5.59044        0.03684       -3.37394
C         -6.08410        1.57259       -0.37519
H         -6.82969        2.17467        0.15154
C         -6.33958        1.15641       -1.68016
H         -7.27676        1.43843       -2.16642
C         -4.10488       -1.94039        1.39942
H         -4.67457       -1.74738        0.48739
C         -2.19570       -1.45444        2.82815
C         -0.93426       -0.72200        3.17686
H         -1.16137        0.30044        3.51356
H         -0.25398       -0.62797        2.31903
H         -0.40082       -1.24079        3.98572
C         -4.56125       -2.90489        2.29269
H         -5.47516       -3.46176        2.07385
C         -2.68220       -2.42355        3.71487
H         -2.11968       -2.61523        4.63288
C         -3.84520       -3.14481        3.46144
H         -4.18873       -3.89548        4.17736
