98
Cat515.ts34.5.log	Energy: -2530377.2141763
C         -1.05817        2.10217        3.55692
H         -0.71271        3.13147        3.68779
H         -2.14748        2.00256        3.60863
C         -0.25284        1.04047        4.06513
H          0.73030        1.26854        4.49188
H         -0.74670        0.21554        4.59189
H         -0.32529       -0.06536        2.83666
Co        -0.13754        1.16967        2.03874
O         -1.90515       -1.00438        0.55908
C         -3.49501        1.14527        1.32409
C         -1.67749        1.22504       -0.98824
O          1.53621        0.26123       -0.48301
C          3.05513        0.26442        1.89782
C          1.13119       -1.86118        1.19986
P          1.36896       -0.01734        1.16180
P         -1.77653        0.66975        0.77810
C          0.62310        2.66515        1.57202
O          1.15358        3.65275        1.29790
C         -2.91117       -1.76644        0.04256
C         -3.48615       -2.72841        0.87288
H         -3.13141       -2.80820        1.90244
C         -3.32387       -1.67611       -1.28948
H         -2.85595       -0.95684       -1.96029
C         -4.49907       -3.55283        0.39101
H         -4.94539       -4.29629        1.05750
C         -4.34506       -2.49770       -1.75228
H         -4.67298       -2.39829       -2.79067
C         -4.96203       -3.44275       -0.92371
C         -6.09254       -4.28839       -1.43252
H         -6.32604       -5.11011       -0.74080
H         -5.85959       -4.72736       -2.41477
H         -7.00885       -3.68712       -1.55718
H         -3.39281        2.22101        1.54164
H         -3.61015        0.65310        2.30285
C         -4.68674        0.87566        0.45453
C         -5.56996       -0.16575        0.76590
H         -5.38887       -0.77096        1.65649
C         -4.95893        1.65221       -0.68080
H         -4.31784        2.50177       -0.92767
C         -6.65780       -0.45604       -0.05096
H         -7.32214       -1.28327        0.20995
C         -6.04751        1.36378       -1.50188
H         -6.23567        1.98098       -2.38379
C         -6.89626        0.30173       -1.19678
H         -7.74761        0.07356       -1.84238
H         -2.65462        1.09865       -1.48006
H         -0.97298        0.50990       -1.43856
C         -1.14735        2.61676       -1.17163
C          0.00266        2.82343       -1.94146
H          0.49854        1.96508       -2.39941
C         -1.75549        3.73290       -0.58172
H         -2.64545        3.60858        0.03889
C          0.53060        4.09978       -2.11755
H          1.43638        4.22896       -2.71503
C         -1.23009        5.01079       -0.75455
H         -1.71607        5.86403       -0.27545
C         -0.08262        5.19968       -1.52203
H          0.33547        6.20087       -1.64918
C          2.64563        0.60756       -1.19562
C          3.17293       -0.29462       -2.12072
H          2.71099       -1.27571       -2.23070
C          3.21900        1.87260       -1.05205
H          2.77480        2.59303       -0.36253
C          4.29013        0.06207       -2.86835
H          4.70154       -0.65924       -3.58018
C          4.34439        2.20837       -1.80286
H          4.79257        3.19736       -1.67274
C          4.90561        1.31229       -2.71961
C          6.10222        1.68839       -3.54481
H          6.78012        0.83321       -3.68494
H          6.67391        2.50344       -3.07847
H          5.80062        2.03063       -4.54903
H          2.79951        0.40528        2.95974
H          3.37094        1.25332        1.53178
C          4.14361       -0.75499        1.75761
C          5.05081       -0.72903        0.69083
H          4.98603        0.06299       -0.05640
C          4.27862       -1.76643        2.71917
H          3.60204       -1.78355        3.57878
C          6.03556       -1.70612        0.57137
H          6.72620       -1.66955       -0.27449
C          5.26520       -2.74373        2.60313
H          5.34938       -3.52337        3.36401
C          6.14316       -2.72257        1.52022
H          6.91595       -3.48870        1.42313
H          0.05486       -1.97755        1.38447
H          1.67356       -2.22686        2.08525
C          1.52089       -2.61334       -0.03680
C          2.75818       -3.25381       -0.16132
H          3.47120       -3.22062        0.66363
C          0.62189       -2.67800       -1.11081
H         -0.34944       -2.18884       -1.01713
C          3.09326       -3.93168       -1.33262
H          4.06709       -4.42143       -1.40891
C          0.95444       -3.35644       -2.27991
H          0.23722       -3.39706       -3.10336
C          2.19590       -3.98356       -2.39799
H          2.45918       -4.51546       -3.31548
