80
Cat531.ts34.5.log	Energy: -2506959.2963850
C         -1.36574       -2.08211       -2.61345
H         -0.74936       -2.96353       -2.81182
H         -2.43812       -2.28750       -2.53350
C         -0.92051       -0.82097       -3.05290
H          0.04088       -0.73325       -3.57087
H         -1.66577       -0.09563       -3.39748
H         -0.80917        0.26371       -1.71127
Co        -0.64149       -1.03483       -1.02251
O         -3.22567        0.93978       -0.40453
C         -3.82106       -1.58451       -0.21232
C         -2.39410       -0.29675        1.85438
O          1.69271       -0.52574        1.04012
C          2.68230       -0.81124       -1.49730
C          1.49348        1.61322       -0.61444
P          1.22945       -0.19462       -0.55959
P         -2.39573       -0.46879        0.03162
C         -0.28918       -2.53454       -0.23348
O         -0.05779       -3.52297        0.31472
C         -2.61583        2.15881       -0.41503
C         -2.08358        2.65903       -1.60540
H         -2.12985        2.04587       -2.50618
C         -2.58206        2.93668        0.74548
H         -3.00346        2.53511        1.66796
C         -1.52140        3.93123       -1.64162
H         -1.09166        4.33890       -2.55758
C         -2.02719        4.21268        0.71231
H         -1.99336        4.84121        1.60404
C         -1.50140        4.69139       -0.48041
F         -0.94868        5.90754       -0.50703
C         -3.74829       -2.87487        0.32956
C         -4.92103       -1.23044       -0.99871
C         -5.86800       -3.43373       -0.68454
C         -5.94045       -2.15487       -1.23140
C         -4.76871       -3.79139        0.09856
H         -2.88694       -3.16470        0.93807
H         -4.70564       -4.79272        0.53123
H         -6.66783       -4.15522       -0.86780
H         -6.79907       -1.86944       -1.84437
H         -4.97741       -0.22438       -1.41780
C         -3.58746       -0.05010        2.54839
C         -1.18774       -0.36868        2.55346
C         -2.35778        0.05856        4.62399
C         -1.17237       -0.19428        3.93873
C         -3.56762        0.13023        3.92714
H         -4.53125        0.00111        1.99867
H         -4.49892        0.32229        4.46573
H         -2.34484        0.19679        5.70808
H         -0.22531       -0.25628        4.48029
H         -0.25717       -0.56219        2.01414
C          2.98016       -0.70310        1.46142
C          3.72401        0.36774        1.95928
H          3.27686        1.36201        1.99363
C          3.53882       -1.98208        1.41012
H          2.93433       -2.80424        1.02268
C          5.03275        0.16291        2.39153
H          5.63729        0.98289        2.78342
C          4.84519       -2.19091        1.83838
H          5.30558       -3.17973        1.80207
C          5.57882       -1.11250        2.32011
F          6.83386       -1.30779        2.72704
C          2.52203       -1.98784       -2.23618
C          3.94539       -0.20211       -1.45054
C          4.85646       -1.95376       -2.84214
C          5.02529       -0.77375       -2.11574
C          3.60330       -2.55891       -2.90549
H          1.53359       -2.45285       -2.27195
H          3.46491       -3.47916       -3.47783
H          5.70699       -2.40045       -3.36303
H          6.00733       -0.29791       -2.06327
H          4.08772        0.71923       -0.88268
C          1.90263        2.24995       -1.79181
C          1.20915        2.38637        0.51705
C          1.82536        4.39367       -0.67988
C          1.38602        3.76718        0.48554
C          2.06844        3.63350       -1.82223
H          2.11399        1.65932       -2.68697
H          2.39888        4.11909       -2.74375
H          1.95291        5.47777       -0.70271
H          1.16638        4.36179        1.37513
H          0.85256        1.89923        1.42786
