80
Cat592.ts34.5.log	Energy: -4112404.0250275
C         -0.11600        3.70443       -0.93836
H         -0.70542        4.40091       -0.33626
H          0.93623        3.98573       -1.05040
C         -0.75885        2.97929       -1.96494
H         -1.84018        3.06853       -2.11126
H         -0.21558        2.80245       -2.89956
H         -0.29174        1.35205       -1.73740
Co        -0.39914        1.79087       -0.32344
O          2.08652        0.01937       -1.26761
C          2.92086        2.35431       -0.19976
C          2.06699        0.21421        1.46733
O         -2.20115       -0.40526        1.18961
C         -3.21807        0.24716       -1.26104
C         -0.97998       -1.48631       -0.91521
P         -1.65033        0.10964       -0.33154
P          1.59707        1.10193       -0.05889
C         -0.89414        2.41701        1.21740
O         -1.18310        2.82422        2.25726
C          3.04852       -0.93796       -1.13159
C          2.73331       -2.15140       -0.51524
H          1.73284       -2.29507       -0.10693
C          4.33028       -0.73229       -1.64418
H          4.57408        0.21815       -2.12001
C          3.68535       -3.15846       -0.41828
H          3.43906       -4.11128        0.05224
C          5.29095       -1.73625       -1.54464
H          6.29544       -1.58591       -1.94337
C          4.96438       -2.94474       -0.93199
Cl         6.15851       -4.19479       -0.80978
C          3.41611        2.69551       -1.46418
H          3.09668        2.12262       -2.33828
C          3.31010        3.12051        0.90586
H          2.91805        2.88592        1.89903
C          4.30704        3.75310       -1.62243
H          4.69981        4.01429       -2.60649
C          4.19815        4.18170        0.76122
H          4.50901        4.77309        1.62395
C          4.69705        4.48973       -0.50458
Cl         5.80564        5.80493       -0.69069
C          1.05096       -0.32993        2.26069
H          0.00350       -0.15297        2.00664
C          3.40388       -0.02290        1.82062
H          4.21240        0.38939        1.21301
C          1.35479       -1.10375        3.37715
H          0.56237       -1.52679        3.99638
C          3.72107       -0.79338        2.93230
H          4.76005       -0.98667        3.20304
C          2.69017       -1.33444        3.70255
Cl         3.07778       -2.30215        5.08185
C         -3.50231       -0.33850        1.60240
C         -4.42059       -1.31412        1.20998
H         -4.09642       -2.12769        0.55922
C         -3.90336        0.70529        2.43655
H         -3.17306        1.45795        2.73760
C         -5.74282       -1.23877        1.63456
H         -6.47044       -1.99101        1.32637
C         -5.22438        0.78067        2.86882
H         -5.54992        1.59322        3.52021
C         -6.14036       -0.18738        2.45989
Cl        -7.78866       -0.08569        2.98343
C         -3.94792        1.43215       -1.10286
H         -3.53306        2.23542       -0.48750
C         -3.74252       -0.77365       -2.06050
H         -3.18664       -1.70439       -2.19473
C         -5.19170        1.58863       -1.70230
H         -5.77130        2.50284       -1.56642
C         -4.97670       -0.62100       -2.68500
H         -5.38946       -1.41218       -3.31289
C         -5.69848        0.55685       -2.49356
Cl        -7.24017        0.74353       -3.25178
C         -1.04554       -2.64343       -0.13223
H         -1.52144       -2.60126        0.84890
C         -0.34720       -1.54564       -2.16343
H         -0.25921       -0.64482       -2.77493
C         -0.49284       -3.84055       -0.58390
H         -0.53007       -4.74114        0.03107
C          0.19854       -2.73556       -2.62898
H          0.70441       -2.78007       -3.59427
C          0.13018       -3.87763       -1.82944
Cl         0.86913       -5.34288       -2.37148
