102
Cat520.ts34.5.log	Energy: -2719144.2492878
C          0.28501        2.46085       -3.19216
H          1.30760        2.55540       -3.56855
H         -0.48309        2.31374       -3.95547
C         -0.06545        3.07912       -1.97850
H          0.66632        3.72317       -1.48048
H         -1.10503        3.38091       -1.81425
H          0.26858        2.06172       -0.69627
Co         0.11073        1.02046       -1.75419
O         -2.17285        1.41271        0.53865
O         -3.03482        0.88947       -1.69547
O         -1.87756       -0.99137       -0.36868
O          2.68633       -0.79045       -1.96259
O          3.22961        1.48954       -1.11271
O          2.28558       -0.13447        0.45887
P          1.97292        0.40142       -1.08869
P         -1.68110        0.58351       -0.81627
C         -0.07614       -0.14352       -3.03182
O         -0.19215       -0.92167       -3.86629
C         -1.40510        1.59970        1.65462
C         -0.46454        0.66668        2.08507
H         -0.30771       -0.25788        1.53086
C         -1.62705        2.76013        2.39725
H         -2.37490        3.47521        2.04941
C          0.27173        0.91624        3.24079
H          1.01540        0.17798        3.55351
C         -0.90265        2.97938        3.56385
H         -1.09195        3.88671        4.14457
C          0.07097        2.07063        4.00272
C          0.88631        2.34892        5.23170
H          1.37288        1.43745        5.60637
H          0.26857        2.76440        6.04205
H          1.68117        3.08415        5.02030
C         -4.33669        0.62305       -1.32814
C         -4.95247       -0.50853       -1.85151
H         -4.38182       -1.14761       -2.52854
C         -5.01880        1.48094       -0.46768
H         -4.51420        2.36623       -0.08185
C         -6.25816       -0.84205       -1.47958
C         -6.88828       -2.10373       -1.99064
H         -6.74305       -2.21521       -3.07573
H         -6.42956       -2.98102       -1.50604
H         -7.96723       -2.12945       -1.78370
C         -6.32506        1.16170       -0.10814
H         -6.87443        1.82215        0.56741
C         -6.93572        0.00834       -0.59877
H         -7.95797       -0.23544       -0.29814
C         -2.90226       -1.70635        0.20019
C         -3.67767       -1.21379        1.24508
H         -3.49404       -0.21193        1.63099
C         -3.11423       -2.98875       -0.30712
H         -2.48076       -3.34537       -1.12136
C         -4.72124       -1.98546        1.76792
C         -5.59490       -1.41566        2.84608
H         -4.99482       -0.96978        3.65371
H         -6.23406       -0.61697        2.43541
H         -6.24911       -2.18153        3.28534
C         -4.13511       -3.76597        0.22893
H         -4.30862       -4.77231       -0.16029
C         -4.94079       -3.26637        1.25180
H         -5.74937       -3.87916        1.65803
C          3.72025       -1.59886       -1.54507
C          3.51288       -2.97604       -1.59300
H          2.55675       -3.35024       -1.96165
C          4.92254       -1.08354       -1.06858
H          5.07023       -0.00423       -1.03722
C          4.50033       -3.83669       -1.13091
H          4.31998       -4.91492       -1.15217
C          5.89965       -1.96236       -0.60432
H          6.83659       -1.55383       -0.21506
C          5.70892       -3.34769       -0.61786
C          6.77264       -4.28643       -0.12572
H          7.37336       -4.68295       -0.96151
H          6.33592       -5.15149        0.39604
H          7.46527       -3.78482        0.56556
C          3.08869        2.79868       -0.74951
C          2.56900        3.15416        0.49459
H          2.26956        2.36832        1.19312
C          3.49532        3.77337       -1.66214
H          3.89918        3.45929       -2.62610
C          2.43158        4.50527        0.83905
C          1.89058        4.88588        2.18508
H          2.62535        4.66565        2.97711
H          1.65615        5.95826        2.23674
H          0.98033        4.31657        2.42166
C          3.36148        5.11427       -1.32050
H          3.66923        5.88632       -2.02974
C          2.82727        5.47883       -0.08436
H          2.72054        6.53597        0.17148
C          2.08464       -1.41520        0.89877
C          3.04304       -1.94026        1.76221
H          3.89828       -1.31497        2.02624
C          0.98506       -2.17815        0.50272
H          0.23314       -1.75939       -0.16651
C          2.93630       -3.25248        2.22899
C          4.01554       -3.82975        3.09755
H          4.93371       -3.99576        2.51018
H          4.27767       -3.14926        3.92193
H          3.71429       -4.79358        3.53118
C          0.86792       -3.48000        0.98257
H          0.00354       -4.07949        0.68645
C          1.83299       -4.01734        1.83136
H          1.73218       -5.04443        2.19120
