102
Cat519.ts34.5.log	Energy: -2719042.5114977
C         -0.56326       -3.78846        0.17533
H         -1.64037       -3.92398        0.31713
H         -0.12935       -4.42605       -0.59970
C          0.24748       -3.39527        1.26205
H         -0.20762       -3.32913        2.25595
H          1.30632       -3.67699        1.28513
H          0.04393       -1.70199        1.39902
Co        -0.00720       -1.85331       -0.07200
O          1.91849        0.15639        1.49817
C          3.24991       -1.79163        0.22973
C          2.16801        0.51223       -1.21678
O         -2.05417        0.16776       -1.41796
C         -3.32956       -1.77424       -0.07861
C         -2.18972        0.46383        1.32102
P         -1.81701       -0.74721       -0.00045
P          1.77213       -0.73097        0.05818
C          0.10644       -2.20299       -1.76826
O          0.13903       -2.45369       -2.89311
C          2.51882        1.37030        1.65293
C          3.71395        1.47018        2.36645
H          4.18221        0.56180        2.74755
C          1.92272        2.52720        1.14747
H          0.98876        2.44599        0.59142
C          4.30458        2.71514        2.56172
H          5.24284        2.77778        3.12081
C          2.52957        3.76438        1.34166
H          2.05474        4.65820        0.92772
C          3.72969        3.88566        2.05085
C          4.36042        5.22822        2.28554
H          4.16428        5.91738        1.45091
H          5.45013        5.14644        2.41112
H          3.96219        5.70193        3.19881
C          3.79171       -2.09556        1.47597
H          3.38532       -1.59638        2.35788
C          3.73704       -2.46409       -0.90726
O          3.13374       -2.14119       -2.06579
C          3.43932       -2.84038       -3.23847
H          4.47916       -2.65787       -3.56169
H          2.74807       -2.47091       -4.00537
H          3.28537       -3.92616       -3.11368
C          4.82616       -3.02560        1.60302
H          5.24146       -3.25096        2.58766
C          4.77359       -3.39145       -0.78910
H          5.16128       -3.90394       -1.67021
C          5.31594       -3.66445        0.46895
H          6.12596       -4.39293        0.55426
C          1.11497        0.94959       -2.02122
H          0.13207        0.49043       -1.89318
C          3.44027        1.10118       -1.37458
O          4.41840        0.64152       -0.57959
C          5.66582        1.27385       -0.56782
H          6.17396        1.19467       -1.54470
H          6.26683        0.75387        0.18859
H          5.57568        2.33680       -0.28567
C          1.29430        1.96320       -2.96142
H          0.45146        2.29681       -3.56944
C          3.62364        2.11824       -2.31606
H          4.59987        2.58766       -2.43808
C          2.55071        2.54324       -3.09980
H          2.70946        3.34310       -3.82778
C         -2.55225        1.42300       -1.56145
C         -1.93744        2.52633       -0.96495
H         -1.06300        2.37632       -0.33232
C         -3.66609        1.62431       -2.38083
H         -4.14397        0.75945       -2.84340
C         -2.44988        3.80490       -1.16979
H         -1.96058        4.65397       -0.68438
C         -4.15993        2.90821       -2.58531
H         -5.03438        3.04612       -3.22820
C         -3.56791        4.02495       -1.98046
C         -4.09321        5.41036       -2.22616
H         -3.84055        6.08978       -1.39908
H         -5.18697        5.41288       -2.34633
H         -3.66547        5.84293       -3.14652
C         -4.02762       -1.98321       -1.26456
H         -3.70775       -1.44445       -2.15818
C         -3.70315       -2.49917        1.06695
O         -2.94063       -2.28162        2.16127
C         -3.24009       -2.94186        3.35623
H         -4.25268       -2.69181        3.71843
H         -2.50456       -2.59849        4.09472
H         -3.15828       -4.03809        3.24935
C         -5.11023       -2.86274       -1.31533
H         -5.65011       -3.01211       -2.25292
C         -4.78953       -3.37556        1.02772
H         -5.09008       -3.92985        1.91741
C         -5.49143       -3.54896       -0.16689
H         -6.33845       -4.23881       -0.19287
C         -1.16110        0.80933        2.19730
H         -0.19189        0.31814        2.08451
C         -3.44131        1.10262        1.45595
O         -4.39929        0.73669        0.59135
C         -5.60435        1.44482        0.53934
H         -6.17706        1.34792        1.47820
H         -6.18553        1.00182       -0.27885
H         -5.43392        2.51280        0.32036
C         -1.34170        1.77606        3.18596
H         -0.51542        2.03833        3.84950
C         -3.62655        2.07414        2.44488
H         -4.58651        2.58050        2.54706
C         -2.57679        2.40547        3.30096
H         -2.73555        3.17082        4.06517
