76
Cat604.ts34.5.log	Energy: -2675411.1805534
C          0.48656       -4.28168       -1.04097
H          1.08325       -5.05367       -0.54699
H         -0.57650       -4.53599       -1.11332
C          1.08226       -3.53406       -2.09937
H          2.14145       -3.68319       -2.33425
H          0.48772       -3.33778       -2.99977
H          0.55045       -2.01011       -1.75114
Co         0.92753       -2.44163       -0.38750
O         -1.24895       -0.17484       -0.54262
C         -2.50017       -2.62053       -0.18282
C         -1.20861       -1.22132        1.98147
O          1.56638        0.36049        0.86343
C          3.85213       -0.71975       -0.09776
C          1.88983        0.39250       -1.91375
P          2.04529       -0.65306       -0.41034
P         -0.96371       -1.68039        0.22013
C          1.78990       -3.10796        0.96381
O          2.35090       -3.54905        1.87216
C         -2.42802        0.49469       -0.58762
C         -2.80949        1.35998        0.44355
H         -2.15579        1.48480        1.30803
C         -3.24601        0.36491       -1.71471
H         -2.92319       -0.29044       -2.52575
C         -4.01280        2.05583        0.36633
H         -4.31831        2.72802        1.16981
C         -4.44961        1.05662       -1.79622
H         -5.09495        0.95302       -2.67003
C         -4.83359        1.89428       -0.74886
Cl        -6.33535        2.75343       -0.84283
H         -2.60312       -2.55323       -1.28055
H         -2.23001       -3.67275        0.01181
C         -3.81907       -2.29188        0.50981
H         -4.05406       -1.22178        0.40935
H         -3.71998       -2.48011        1.59140
C         -4.97365       -3.11304       -0.04359
H         -5.13230       -2.90160       -1.11329
H         -4.78286       -4.19387        0.05492
H         -5.91416       -2.88901        0.48211
H         -0.42295       -0.47619        2.18829
H         -2.18604       -0.72911        2.11284
C         -1.07784       -2.40697        2.93167
H         -0.09247       -2.87844        2.79598
H         -1.82052       -3.18197        2.67308
C         -1.25494       -2.00291        4.38735
H         -0.50425       -1.25270        4.68231
H         -2.24956       -1.56298        4.56481
H         -1.14590       -2.86706        5.05997
C          1.70534        1.71085        0.90831
C          0.71656        2.52850        0.35352
H         -0.14436        2.05820       -0.12211
C          2.80651        2.28742        1.54634
H          3.55842        1.63878        1.99933
C          0.84300        3.91261        0.40467
H          0.07820        4.55708       -0.03188
C          2.93635        3.67238        1.60155
H          3.79447        4.13256        2.09415
C          1.95803        4.47973        1.02197
Cl         2.12224        6.20416        1.08204
H          4.27372        0.29924       -0.09315
H          3.95672       -1.12305        0.92376
C          4.57780       -1.61576       -1.09395
H          4.46565       -1.20649       -2.11344
H          4.07545       -2.59749       -1.10756
C          6.05380       -1.78502       -0.77172
H          6.57937       -0.81669       -0.77591
H          6.19148       -2.23252        0.22527
H          6.55226       -2.43890       -1.50320
H          1.93006       -0.33437       -2.74310
H          0.84447        0.74471       -1.89702
C          2.87206        1.53107       -2.16435
H          3.88277        1.11674       -2.31621
H          2.94156        2.18520       -1.28238
C          2.47533        2.36413       -3.37351
H          2.40747        1.74686       -4.28380
H          1.49196        2.83611       -3.21911
H          3.20360        3.16651       -3.56494
