88
Cat689.ts34.5.log	Energy: -2244857.5310412
C          0.46889       -3.03821        0.89334
H          0.33321       -3.84584        0.16781
H          1.44403       -3.05237        1.39351
C         -0.66738       -2.57292        1.60054
H         -1.65686       -2.97163        1.35786
H         -0.55722       -2.33026        2.66416
H         -0.48686       -0.89579        1.50335
Co        -0.09348       -1.26134        0.12581
C          1.15008        1.57503        1.54357
C          3.04923       -0.50646        1.41831
C          2.27008        0.89662       -1.01863
C         -1.49077        1.33153       -1.56894
C         -3.19502       -0.96253       -1.28214
C         -2.65490        0.69640        1.05787
P         -1.79945       -0.08087       -0.40885
P          1.54106        0.09352        0.50347
C          0.14144       -1.83564       -1.48426
O          0.30973       -2.19674       -2.57231
H          2.00979        2.26558        1.54117
H          0.32636        2.09780        1.02505
C          0.73894        1.25455        2.97423
H          1.60190        0.83691        3.51948
H         -0.02376        0.45616        2.96928
C          0.20800        2.46943        3.71982
H          0.95342        3.27999        3.74734
H         -0.69706        2.87122        3.23508
H         -0.05680        2.22221        4.75901
H          2.64733       -1.06372        2.28360
H          3.58402        0.36644        1.82682
C          4.02073       -1.37222        0.66147
C          5.38850       -1.28747        0.95606
H          5.72587       -0.58525        1.72366
C          3.61395       -2.26769       -0.33497
H          2.55252       -2.34925       -0.57414
C          6.32093       -2.06766        0.27700
H          7.38216       -1.98145        0.52362
C          4.54603       -3.04546       -1.02045
H          4.20275       -3.73039       -1.79963
C          5.90279       -2.94998       -0.71897
H          6.63256       -3.55865       -1.25813
H          1.39825        1.29799       -1.55630
H          2.65476        0.06300       -1.62564
C          3.30823        1.95654       -0.82495
C          4.67179        1.63733       -0.78383
H          4.98345        0.60078       -0.92794
C          2.93910        3.30006       -0.66654
H          1.88157        3.57385       -0.72214
C          5.63122        2.62397       -0.56642
H          6.68887        2.34983       -0.53931
C          3.89627        4.28890       -0.45125
H          3.58430        5.32971       -0.33368
C          5.24837        3.95326       -0.39341
H          6.00117        4.72701       -0.22511
H         -1.01716        2.11893       -0.95611
H         -0.69721        0.96761       -2.24317
C         -2.63203        1.91754       -2.39453
H         -3.49416        2.15344       -1.75395
H         -2.98355        1.16192       -3.11578
C         -2.20361        3.17119       -3.14136
H         -1.91022        3.96628       -2.43691
H         -1.34173        2.97531       -3.79963
H         -3.01971        3.56607       -3.76519
H         -2.83863       -1.09990       -2.31513
H         -4.08076       -0.31030       -1.32058
C         -3.50027       -2.28963       -0.66141
C         -4.43161       -2.41317        0.37620
H         -5.00359       -1.53857        0.69605
C         -2.80013       -3.43521       -1.06455
H         -2.07545       -3.36173       -1.87806
C         -4.64616       -3.63769        1.00803
H         -5.37753       -3.70975        1.81663
C         -3.01204       -4.65909       -0.43607
H         -2.45159       -5.53820       -0.76294
C         -3.93091       -4.76442        0.60853
H         -4.09282       -5.72399        1.10486
H         -1.83237        1.02656        1.70746
H         -3.14176       -0.14411        1.57739
C         -3.59516        1.82678        0.79282
C         -4.95079        1.61443        0.51003
H         -5.35689        0.60106        0.54725
C         -3.11639        3.14474        0.77469
H         -2.06741        3.33533        1.01862
C         -5.78965        2.67679        0.17925
H         -6.84238        2.48615       -0.04273
C         -3.95085        4.20890        0.44430
H         -3.55319        5.22658        0.43105
C         -5.29072        3.97766        0.13390
H         -5.94698        4.81033       -0.12902
