100
Cat636.ts34.5.log	Energy: -2624766.3840236
C          0.81184       -3.62242        0.85278
H          1.00020       -4.38076        0.08875
H          1.67624       -3.42869        1.49625
C         -0.49588       -3.46979        1.37906
H         -1.33062       -4.03973        0.96048
H         -0.61928       -3.27352        2.44989
H         -0.68276       -1.78963        1.37632
Co        -0.03979       -1.97545        0.05731
C          1.47733        0.25442        2.12917
O          3.07538       -1.11949        0.57028
O          1.53861        0.64294       -0.61205
C         -1.54529        0.15166       -2.07069
O         -3.13646       -1.18259       -0.42711
O         -1.60029        0.61122        0.66179
P         -1.55543       -0.64823       -0.42279
P          1.48593       -0.60212        0.50230
C          0.15478       -2.61196       -1.55841
O          0.29618       -3.01478       -2.62900
H          1.45036       -0.58753        2.84161
H          0.48041        0.72087        2.16264
C          2.56558        1.22578        2.47205
C          2.32124        2.60311        2.45053
H          1.32100        2.96612        2.20328
C          3.85052        0.78005        2.80565
H          4.05552       -0.29186        2.82456
C          3.33805        3.51469        2.72087
H          3.12884        4.58601        2.68162
C          4.86647        1.68941        3.08744
H          5.86348        1.32346        3.34572
C          4.61640        3.06063        3.03967
H          5.41582        3.77401        3.25392
C          3.59453       -1.99731       -0.34163
C          3.33336       -1.87477       -1.70436
H          2.69562       -1.06181       -2.05728
C          4.42166       -3.01495        0.13581
H          4.61325       -3.08589        1.20797
C          3.86934       -2.79259       -2.61562
C          3.52669       -2.67918       -4.07163
H          3.72547       -1.66493       -4.45116
H          4.10084       -3.39179       -4.67979
H          2.45456       -2.88059       -4.22566
C          4.97272       -3.91516       -0.76901
H          5.62173       -4.71570       -0.40574
C          4.69452       -3.81199       -2.13257
H          5.12371       -4.53371       -2.83201
C          2.31756        1.76997       -0.66874
C          3.70427        1.72572       -0.54901
H          4.19760        0.77255       -0.36022
C          1.66424        2.97772       -0.91973
H          0.57879        2.98015       -1.02817
C          4.45706        2.90163       -0.63669
C          5.94615        2.84493       -0.46425
H          6.20082        2.59036        0.57699
H          6.39365        2.07190       -1.10745
H          6.41857        3.80766       -0.70416
C          2.41121        4.14646       -1.01832
H          1.90561        5.09562       -1.21253
C          3.79662        4.11256       -0.86968
H          4.37613        5.03629       -0.94200
H         -1.50912       -0.70438       -2.76464
H         -0.55296        0.62821       -2.11166
C         -2.64073        1.10570       -2.44169
C         -2.39683        2.48213       -2.48961
H         -1.39495        2.85712       -2.26831
C         -3.92692        0.64160       -2.74304
H         -4.13012       -0.43037       -2.70874
C         -3.41685        3.37794       -2.79829
H         -3.20859        4.45000       -2.81515
C         -4.94592        1.53502       -3.06237
H         -5.94401        1.15582       -3.29601
C         -4.69667        2.90707       -3.08521
H         -5.49812        3.60811       -3.33044
C         -3.57469       -2.09426        0.49674
C         -3.50720       -1.81871        1.86089
H         -3.09203       -0.86424        2.19221
C         -4.09905       -3.30125        0.03661
H         -4.13382       -3.49078       -1.03739
C         -3.94914       -2.76111        2.79650
C         -3.83460       -2.47065        4.26473
H         -4.37789       -3.21184        4.86698
H         -2.78032       -2.48575        4.58692
H         -4.23100       -1.47314        4.50795
C         -4.55128       -4.23473        0.96361
H         -4.96392       -5.18480        0.61592
C         -4.47330       -3.97133        2.33135
H         -4.82549       -4.71624        3.04928
C         -2.35851        1.75527        0.66459
C         -3.74636        1.72957        0.55487
H         -4.25691        0.77770        0.40768
C         -1.68021        2.96008        0.85138
H         -0.59384        2.94600        0.94698
C         -4.47734        2.92204        0.59306
C         -5.96849        2.88591        0.43365
H         -6.23616        2.58057       -0.59044
H         -6.42672        2.15850        1.12105
H         -6.41970        3.86959        0.62399
C         -2.40528        4.14560        0.89972
H         -1.88085        5.09356        1.04272
C         -3.79243        4.12966        0.76458
H         -4.35438        5.06637        0.79733
