96
Cat615.ts34.5.log	Energy: -2341039.6242692
C          0.99871       -3.88172        0.58288
H          1.11865       -4.64384       -0.19207
H          1.93966       -3.61221        1.07621
C         -0.20929       -3.84545        1.32961
H         -1.01901       -4.53682        1.07608
H         -0.16094       -3.63553        2.40368
H         -0.60503       -2.16101        1.33787
Co        -0.12969       -2.33993       -0.05101
C          1.76700       -0.40446        1.91911
O          2.99357       -1.36836       -0.20036
O          1.20070        0.46175       -0.68000
C         -1.72572       -0.03914       -1.88064
O         -3.21627       -1.33724       -0.13100
O         -1.43703        0.25616        0.89851
P         -1.63474       -0.90013       -0.25680
P          1.44592       -0.93318        0.17751
C         -0.34416       -3.03616       -1.63795
O         -0.47275       -3.48662       -2.69310
H          1.78386       -1.37539        2.44331
H          0.82686        0.08298        2.22201
C          2.96986        0.40864        2.29788
C          2.82295        1.69671        2.82691
H          1.81790        2.10298        2.97450
C          4.26748       -0.10314        2.15418
H          4.39903       -1.10601        1.74653
C          3.93280        2.46798        3.16693
H          3.79138        3.47219        3.57415
C          5.37823        0.66551        2.49223
H          6.38078        0.25023        2.36273
C          5.21779        1.95788        2.99221
H          6.09042        2.56078        3.25407
C          3.25966       -2.16078       -1.34820
H          3.95292       -2.95787       -1.02981
H          2.32804       -2.64494       -1.68523
C          3.87418       -1.33617       -2.45966
H          3.97397       -1.98104       -3.35072
H          3.16203       -0.53899       -2.73458
C          5.22542       -0.73432       -2.09952
H          5.93692       -1.55232       -1.88745
H          5.12460       -0.17277       -1.15698
C          5.78953        0.16983       -3.18256
H          5.93005       -0.37441       -4.13054
H          5.11123        1.01376       -3.38878
H          6.76355        0.59264       -2.89283
C          1.67804        1.76872       -0.42015
H          1.07116        2.43375       -1.05879
H          1.46097        2.04916        0.62356
C          3.14751        1.96123       -0.72230
H          3.73615        1.28547       -0.08387
H          3.33879        1.65614       -1.76444
C          3.60766        3.39490       -0.50451
H          3.33718        3.70938        0.51842
H          3.06025        4.06921       -1.18760
C          5.10566        3.56257       -0.70061
H          5.66305        2.94122        0.01817
H          5.41411        3.25539       -1.71294
H          5.42122        4.60713       -0.55717
H         -1.76909       -0.89027       -2.58070
H         -0.72675        0.40617       -2.00106
C         -2.82008        0.94056       -2.19140
C         -2.51551        2.28111       -2.45805
H         -1.47070        2.60517       -2.44070
C         -4.16216        0.54080       -2.25638
H         -4.41427       -0.50105       -2.05569
C         -3.51846        3.20504       -2.74495
H         -3.25541        4.24644       -2.94620
C         -5.16651        1.46220       -2.54218
H         -6.20725        1.13098       -2.58024
C         -4.85147        2.80002       -2.77992
H         -5.64100        3.52182       -3.00176
C         -3.59286       -2.45516        0.66217
H         -4.46878       -2.90263        0.16482
H         -2.77388       -3.19185        0.64421
C         -3.93130       -2.04670        2.08086
H         -4.07049       -2.96118        2.68432
H         -3.05754       -1.52360        2.50791
C         -5.16835       -1.16407        2.17596
H         -6.04950       -1.74497        1.85041
H         -5.06836       -0.33953        1.45262
C         -5.40533       -0.60361        3.56790
H         -5.52522       -1.40726        4.31251
H         -4.55626        0.01901        3.89453
H         -6.30963        0.02283        3.60559
C         -1.79787        1.62359        0.84939
H         -1.21013        2.10776        1.64778
H         -1.46720        2.06960       -0.10187
C         -3.27361        1.87316        1.06820
H         -3.84504        1.36882        0.27346
H         -3.57403        1.40437        2.02016
C         -3.61979        3.35462        1.08047
H         -3.24534        3.81975        0.15222
H         -3.08778        3.85339        1.91058
C         -5.11430        3.60459        1.19884
H         -5.65077        3.16493        0.34309
H         -5.52438        3.15196        2.11624
H         -5.34689        4.67998        1.22390
