90
Cat650.ts34.5.log	Energy: -3539998.7595361
C         -0.55100       -2.78890       -2.21577
H         -0.16005       -3.78207       -1.97684
H         -1.61479       -2.79167       -2.47993
C          0.31488       -1.84169       -2.81154
H          1.36718       -2.08972       -2.98353
H         -0.09119       -1.17150       -3.57745
H          0.14271       -0.39417       -1.86804
Co         0.01292       -1.43664       -0.82247
C         -2.74252       -0.00549       -2.10561
C         -3.17307       -1.17814        0.49746
C         -1.72670        1.25732        0.30468
C          1.99356       -0.50357        1.82599
C          3.32374       -0.90821       -0.71031
C          1.77721        1.43054       -0.35884
P          1.70133       -0.37467       -0.02509
P         -1.84422       -0.38910       -0.49988
C          0.14513       -2.70782        0.34001
O          0.22902       -3.55109        1.12792
H         -2.17094        0.81266       -2.56902
H         -2.56259       -0.88716       -2.73567
C         -4.20187        0.31724       -2.01892
C         -4.62008        1.62748       -1.75335
H         -3.87308        2.41814       -1.66450
C         -5.17478       -0.69688       -2.15233
C         -4.79447       -2.11147       -2.48017
H         -4.12920       -2.54137       -1.71646
H         -4.26856       -2.17631       -3.44695
H         -5.68455       -2.75187       -2.54245
C         -5.96516        1.94156       -1.58201
H         -6.26160        2.97135       -1.36932
C         -6.52200       -0.36398       -1.97891
H         -7.27391       -1.15195       -2.07453
C         -6.92318        0.93656       -1.68593
H         -7.98300        1.16482       -1.55059
C         -3.12607       -2.55903        0.71256
H         -2.27634       -3.13160        0.33833
C         -4.27373       -0.46036        0.98754
H         -4.33988        0.61771        0.83033
C         -4.14754       -3.21790        1.39201
H         -4.10543       -4.29516        1.55923
C         -5.30109       -1.10320        1.66826
H         -6.16036       -0.54306        2.03972
C         -5.23319       -2.48286        1.86284
Cl        -6.51347       -3.28992        2.70337
C         -1.55829        2.44332       -0.41872
H         -1.54045        2.43115       -1.50968
C         -1.67571        1.32525        1.70453
H         -1.78848        0.41232        2.29551
C         -1.38857        3.66601        0.22379
H         -1.24884        4.58339       -0.35013
C         -1.49405        2.53756        2.36276
H         -1.45873        2.58280        3.45264
C         -1.35774        3.70613        1.61494
Cl        -1.08707        5.21591        2.42156
H          1.39324        0.29533        2.28611
H          1.51489       -1.44467        2.12321
C          3.42837       -0.46272        2.26188
C          4.07012        0.75757        2.50240
H          3.50000        1.68556        2.43613
C          4.17037       -1.65919        2.37388
C          3.52541       -3.00352        2.20315
H          3.03059       -3.10920        1.22785
H          2.75255       -3.18190        2.96841
H          4.26988       -3.80679        2.28599
C          5.42733        0.81980        2.80678
H          5.90212        1.78752        2.98476
C          5.53392       -1.57804        2.67260
H          6.11048       -2.50401        2.74651
C          6.16836       -0.35575        2.87831
H          7.23649       -0.32526        3.10573
C          3.44568       -2.21651       -1.18661
H          2.55813       -2.85493       -1.20344
C          4.45673       -0.08456       -0.70151
H          4.38416        0.94297       -0.34079
C          4.67251       -2.71206       -1.62014
H          4.76885       -3.73572       -1.98521
C          5.68809       -0.56332       -1.13278
H          6.57407        0.07281       -1.11210
C          5.78935       -1.87997       -1.58323
Cl         7.32348       -2.48501       -2.10994
C          1.68837        2.42528        0.61560
H          1.57024        2.16796        1.66785
C          1.87216        1.82605       -1.70225
H          1.94017        1.06663       -2.48618
C          1.70283        3.77664        0.27495
H          1.60405        4.54454        1.04371
C          1.88008        3.16781       -2.06115
H          1.94945        3.46834       -3.10787
C          1.79108        4.14044       -1.06363
Cl         1.74167        5.81517       -1.50104
