108
Cat699.ts34.5.log	Energy: -2158343.7077155
C         -0.74023        3.00053        1.43965
H         -0.55326        3.87693        0.81239
H         -1.71104        3.02241        1.94792
C          0.36277        2.38350        2.08633
H          1.37275        2.77394        1.91628
H          0.22621        2.02321        3.11346
H          0.26475        0.76311        1.74260
Co        -0.27333        1.30368        0.46543
C         -1.73445       -1.35195        2.11406
C         -3.48510        0.78251        1.49451
C         -2.57193       -0.94320       -0.62292
C          1.11754       -1.12552       -1.40394
C          2.47415        1.40911       -1.50608
C          2.71714       -0.22938        0.88416
P          1.47411        0.35872       -0.36036
P         -1.94407       -0.01412        0.85078
C         -0.72634        1.99465       -1.04470
O         -1.05242        2.42121       -2.07179
H         -2.69162       -1.86832        2.30113
H         -1.47114       -0.81957        3.04289
C         -0.64531       -2.34140        1.73516
H         -0.97079       -2.91701        0.85097
H          0.24280       -1.76963        1.41691
C         -0.21686       -3.32784        2.82364
H         -1.11835       -3.86865        3.16856
C          0.75235       -4.35095        2.24061
H          0.30499       -4.89409        1.39330
H          1.06116       -5.09295        2.99303
H          1.66559       -3.85432        1.86985
C          0.40194       -2.62261        4.02553
H          0.72132       -3.34690        4.79069
H         -0.30017       -1.92513        4.50596
H          1.29061       -2.04341        3.72175
H         -4.22219        0.01278        1.78171
H         -3.18888        1.29413        2.42709
C         -4.09326        1.78387        0.52412
H         -3.29984        2.45650        0.15671
H         -4.47280        1.25356       -0.36720
C         -5.22004        2.60824        1.13020
H         -4.83683        3.15096        2.01388
H         -6.00825        1.93388        1.51294
C         -5.83439        3.60335        0.15576
H         -5.03983        4.26735       -0.22774
H         -6.21521        3.05739       -0.72568
C         -6.95102        4.43620        0.76406
H         -7.37410        5.14461        0.03569
H         -6.58900        5.02139        1.62486
H         -7.77455        3.79875        1.12489
H         -2.78490       -0.17456       -1.38550
H         -1.70554       -1.49773       -1.01853
C         -3.75874       -1.87632       -0.44711
H         -3.54402       -2.61603        0.34419
H         -4.63795       -1.30810       -0.09662
C         -4.12107       -2.61699       -1.72791
H         -3.24068       -3.18736       -2.07803
H         -4.33478       -1.88257       -2.52566
C         -5.30586       -3.56059       -1.57696
H         -5.08815       -4.28817       -0.77476
H         -6.18239       -2.98653       -1.22746
C         -5.65629       -4.30064       -2.85771
H         -6.51516       -4.97439       -2.71745
H         -4.80909       -4.91064       -3.21074
H         -5.91316       -3.59823       -3.66696
H          0.48997       -0.73364       -2.22437
H          0.44239       -1.73225       -0.78397
C          2.23822       -1.99128       -1.95538
H          2.96839       -1.36939       -2.50034
H          2.79198       -2.45757       -1.12107
C          1.75723       -3.10737       -2.88959
H          1.22923       -2.62613       -3.73456
C          2.94776       -3.87351       -3.45449
H          3.64941       -3.20205       -3.97368
H          2.62765       -4.64555       -4.17120
H          3.50569       -4.37923       -2.64850
C          0.77662       -4.05449       -2.20470
H          0.48694       -4.87694       -2.87672
H         -0.14807       -3.54459       -1.89447
H          1.22887       -4.50321       -1.30367
H          3.37098        0.87295       -1.85858
H          1.83022        1.57628       -2.38682
C          2.84257        2.74718       -0.88245
H          1.91992        3.20871       -0.49092
H          3.49193        2.58544       -0.00257
C          3.53246        3.70216       -1.84473
H          2.87908        3.86571       -2.72093
H          4.45171        3.23167       -2.23977
C          3.88046        5.04462       -1.21695
H          2.95844        5.50305       -0.81785
H          4.53169        4.87600       -0.34064
C          4.55687        6.00684       -2.17977
H          4.79523        6.96660       -1.69666
H          3.91190        6.22226       -3.04687
H          5.49885        5.58720       -2.56865
H          2.65281        0.48235        1.72309
H          2.31160       -1.17785        1.27807
C          4.17200       -0.40454        0.47184
H          4.25147       -1.04416       -0.42108
H          4.59422        0.57170        0.17888
C          5.02283       -0.99882        1.58664
H          4.60815       -1.98235        1.87583
H          4.93859       -0.36511        2.48843
C          6.49027       -1.15943        1.21527
H          6.56667       -1.78862        0.31061
H          6.89949       -0.17472        0.92753
C          7.33371       -1.75893        2.32874
H          8.38803       -1.86227        2.03060
H          6.96856       -2.75937        2.61188
H          7.30408       -1.13139        3.23406
