100
Cat605.ts34.5.log	Energy: -2872617.5349287
C          2.57828        1.50790       -2.80016
H          2.80282        2.56981       -2.93311
H          3.45789        0.86283       -2.90380
C          1.31647        1.01633       -3.25038
H          0.57248        1.72287       -3.63413
H          1.29109        0.06543       -3.79752
H          0.89824        0.03088       -2.03293
Co         1.39181        1.16870       -1.22341
O          2.65667       -1.81567       -0.49377
C          4.43637        0.08846       -0.19656
C          2.31429       -0.30644        1.71426
O         -0.66087        0.54049        1.14613
C         -1.56565        2.59563       -0.39936
C         -1.69895       -0.12999       -1.33503
P         -0.57978        1.04934       -0.47581
P          2.62278       -0.14942       -0.08956
C          1.69562        2.76250       -0.60660
O          1.90864        3.81392       -0.18007
C          1.52896       -2.47811       -0.83370
C          1.14735       -2.57631       -2.17632
H          1.77659       -2.10814       -2.93489
C          0.75128       -3.10596        0.14507
H          1.06550       -3.04682        1.18857
C         -0.00238       -3.27226       -2.53764
H         -0.30337       -3.34772       -3.58386
C         -0.39613       -3.81056       -0.20967
H         -0.99940       -4.31360        0.54826
C         -0.77671       -3.87846       -1.54910
Cl        -2.22102       -4.73413       -1.98467
H          4.60883        1.15537        0.02761
H          4.66165       -0.02965       -1.26794
C          5.31586       -0.81347        0.65394
H          5.12040       -0.61267        1.72068
H          5.03253       -1.86622        0.48007
C          6.81883       -0.65111        0.40421
H          7.06436        0.42024        0.53313
C          7.61199       -1.44113        1.43915
H          7.36442       -1.12527        2.46473
H          8.69664       -1.31312        1.29964
H          7.39111       -2.51879        1.36038
C          7.22026       -1.05873       -1.00927
H          8.30441       -0.94273       -1.16168
H          6.71588       -0.45440       -1.77804
H          6.96778       -2.11607       -1.19595
H          2.98004       -1.08346        2.12411
H          1.27719       -0.66122        1.79892
C          2.46946        1.01409        2.45410
H          3.48317        1.41916        2.28669
H          1.77110        1.75099        2.02276
C          2.22825        0.92685        3.96397
H          2.91973        0.16262        4.36765
C          2.56372        2.25846        4.62587
H          3.60420        2.55884        4.42602
H          2.42964        2.21078        5.71770
H          1.90847        3.05883        4.24352
C          0.80467        0.49922        4.30162
H          0.65944        0.43541        5.39111
H          0.54916       -0.48264        3.87654
H          0.07538        1.22453        3.90656
C         -1.79610        0.14772        1.78264
C         -2.14858       -1.20402        1.79281
H         -1.50141       -1.91998        1.28580
C         -2.60044        1.07756        2.44690
H         -2.29771        2.12561        2.46974
C         -3.32910       -1.61768        2.39956
H         -3.62389       -2.66827        2.38732
C         -3.78260        0.66919        3.05789
H         -4.42592        1.39047        3.56434
C         -4.15211       -0.67467        3.01436
Cl        -5.64857       -1.17861        3.72813
H         -1.03716        3.26010        0.30533
H         -2.55801        2.38034        0.02409
C         -1.67166        3.25858       -1.76636
H         -0.65451        3.37875       -2.17506
H         -2.20240        2.58924       -2.46881
C         -2.37413        4.61795       -1.76184
H         -1.83046        5.26450       -1.04756
C         -2.28130        5.26116       -3.14041
H         -1.23432        5.36741       -3.46415
H         -2.74085        6.26152       -3.14953
H         -2.80369        4.64865       -3.89448
C         -3.82461        4.51970       -1.30201
H         -4.31391        5.50574       -1.31951
H         -3.91184        4.12817       -0.27724
H         -4.40015        3.85134       -1.96495
H         -1.33005       -1.12704       -1.03907
H         -1.42871       -0.03581       -2.39870
C         -3.20771       -0.02028       -1.14046
H         -3.44935        0.19561       -0.08997
H         -3.59788        0.83551       -1.71982
C         -3.96457       -1.28702       -1.54696
H         -3.51060       -2.13014       -0.99352
C         -5.42601       -1.19015       -1.12734
H         -5.52066       -1.03991       -0.04008
H         -5.97904       -2.10506       -1.39057
H         -5.92593       -0.34381       -1.62788
C         -3.82887       -1.58640       -3.03485
H         -4.36000       -2.51193       -3.30295
H         -2.77772       -1.71930       -3.33238
H         -4.25186       -0.76617       -3.63967
