102
Cat653.ts34.5.log	Energy: -2485319.7290520
C         -0.84741       -2.82912       -2.07367
H         -0.49740       -3.82489       -1.78632
H         -1.92590       -2.78114       -2.26633
C          0.02078       -1.98988       -2.82210
H          1.04139       -2.32347       -3.04068
H         -0.40057       -1.38972       -3.63783
H         -0.08138       -0.52484       -2.04291
Co        -0.07676       -1.41889       -0.86141
C         -2.76046        0.44630       -1.72968
C         -3.17083       -1.24789        0.59120
C         -1.55958        1.06043        0.87183
C          1.92759        0.27327        1.27305
C          3.29643       -1.30552       -0.77343
C          2.05097        1.11848       -1.53380
P          1.75030       -0.35314       -0.48047
P         -1.84018       -0.33224       -0.29236
C          0.17133       -2.48829        0.47749
O          0.32407       -3.13756        1.42306
H         -2.11026        1.26939       -2.06452
H         -2.69893       -0.31872       -2.51697
C         -4.16948        0.90305       -1.51392
C         -4.42475        2.19176       -1.02813
H         -3.58772        2.87018       -0.85501
C         -5.25810        0.03494       -1.74975
C         -5.05582       -1.34820       -2.29475
H         -4.46328       -1.96894       -1.60519
H         -4.52369       -1.33228       -3.25982
H         -6.01912       -1.85159       -2.45295
C         -5.71751        2.62196       -0.74364
H         -5.88440        3.63092       -0.35923
C         -6.55159        0.48442       -1.46319
H         -7.39278       -0.19065       -1.64341
C         -6.78967        1.75954       -0.95635
H         -7.81133        2.08057       -0.73904
C         -3.14361       -2.64694        0.61281
H         -2.30991       -3.17347        0.14644
C         -4.23704       -0.57822        1.20170
H         -4.25976        0.51435        1.20252
C         -4.17607       -3.35346        1.22397
H         -4.14911       -4.44561        1.24472
C         -5.28794       -1.27438        1.80725
C         -6.43891       -0.52181        2.40810
H         -6.08919        0.23711        3.12510
H         -7.00029        0.01207        1.62431
H         -7.13463       -1.19259        2.93157
C         -5.24216       -2.67261        1.80882
H         -6.05254       -3.23494        2.28143
C         -1.29675        2.36704        0.44977
H         -1.36339        2.63293       -0.60679
C         -1.41793        0.75599        2.23378
H         -1.60779       -0.26701        2.57243
C         -0.91619        3.34041        1.37375
H         -0.72212        4.36117        1.03426
C         -1.01942        1.71359        3.16830
C         -0.81367        1.34064        4.60724
H         -1.40812        0.45839        4.88351
H          0.24547        1.09735        4.79639
H         -1.08395        2.16578        5.28237
C         -0.77374        3.01899        2.72016
H         -0.46759        3.78729        3.43521
H          1.21995        1.11226        1.34752
H          1.49374       -0.53039        1.88312
C          3.29221        0.65419        1.75267
C          3.76777        1.95766        1.56417
H          3.11131        2.70012        1.10680
C          4.13306       -0.30147        2.36430
C          3.66522       -1.70325        2.62261
H          3.39193       -2.21978        1.69009
H          2.77266       -1.72316        3.26865
H          4.44933       -2.29368        3.11552
C          5.05990        2.32137        1.93291
H          5.40765        3.34380        1.76744
C          5.42671        0.08235        2.73384
H          6.07901       -0.65861        3.20437
C          5.89854        1.37478        2.51581
H          6.91575        1.64313        2.81148
C          3.21044       -2.68301       -1.00232
H          2.22352       -3.15005       -1.04327
C          4.55418       -0.69346       -0.74065
H          4.62837        0.38590       -0.58629
C          4.37153       -3.43403       -1.16511
H          4.30412       -4.50998       -1.34336
C          5.72921       -1.43720       -0.88865
C          7.06369       -0.75782       -0.79245
H          7.13135        0.08939       -1.49249
H          7.21482       -0.34943        0.21988
H          7.88938       -1.44951       -1.01072
C          5.61912       -2.81636       -1.09931
H          6.52749       -3.41348       -1.21996
C          2.57028        0.92998       -2.82260
H          2.89015       -0.06482       -3.14168
C          1.65232        2.40009       -1.15121
H          1.23107        2.56359       -0.15876
C          2.68773        2.00953       -3.69125
H          3.09957        1.85703       -4.69194
C          1.76206        3.49649       -2.01546
C          1.30055        4.85538       -1.57242
H          0.19928        4.91887       -1.57339
H          1.63567        5.08028       -0.54850
H          1.67604        5.64692       -2.23601
C          2.28801        3.28488       -3.29237
H          2.38828        4.12786       -3.98156
