94
Cat655.ts34.5.log	Energy: -2575455.0100377
C         -0.66622        0.79508       -3.74264
H         -0.50455        0.07909       -4.55235
H         -1.70002        1.14592       -3.66495
C          0.39535        1.65359       -3.36098
H          1.38525        1.52833       -3.81079
H          0.16923        2.69691       -3.11115
H          0.35156        1.56504       -1.69604
Co         0.14033        0.13708       -2.01520
C         -2.06668        1.53071        0.23249
O         -3.00713       -0.31112       -1.49673
O         -1.40730       -1.16958        0.35340
C          1.97272       -1.69424        0.11068
O          3.19679        0.37188       -1.32668
O          1.67191        0.82916        0.72878
P          1.72873       -0.06481       -0.69491
P         -1.54700        0.05727       -0.77440
C          0.26256       -1.46938       -2.67629
O          0.28301       -2.54751       -3.08402
H         -1.45707        1.49106        1.14691
H         -1.67386        2.37996       -0.34640
C         -3.51947        1.70461        0.55042
C         -4.02637        1.28799        1.78604
H         -3.34664        0.85569        2.52291
C         -4.39271        2.29053       -0.39158
C         -3.89353        2.77227       -1.72139
H         -3.48999        1.93574       -2.31240
H         -3.08858        3.51729       -1.60984
H         -4.70138        3.23853       -2.30144
C         -5.37905        1.40946        2.09134
H         -5.74930        1.06676        3.06023
C         -5.74750        2.41245       -0.06524
H         -6.42567        2.86463       -0.79421
C         -6.24707        1.96967        1.15816
H         -7.31152        2.07196        1.38262
C         -3.77554       -1.42040       -1.29512
C         -5.07440       -1.25147       -0.81330
H         -5.42717       -0.24440       -0.58524
C         -3.28255       -2.69576       -1.58035
H         -2.26570       -2.81043       -1.95955
C         -5.87929       -2.36988       -0.60869
H         -6.89435       -2.23593       -0.22697
C         -4.09485       -3.80628       -1.36143
H         -3.70594       -4.80444       -1.57628
C         -5.39297       -3.65041       -0.87418
H         -6.02451       -4.52529       -0.70476
C         -1.83004       -1.24265        1.65017
C         -2.99693       -1.93163        1.98100
H         -3.59834       -2.38256        1.19190
C         -1.03173       -0.67905        2.64850
H         -0.10421       -0.18143        2.35748
C         -3.38004       -2.01561        3.31736
H         -4.29903       -2.54725        3.57509
C         -1.42836       -0.76496        3.98162
H         -0.80618       -0.31731        4.76057
C         -2.60875       -1.42635        4.32003
H         -2.92081       -1.49310        5.36448
H          1.03860       -1.82355        0.68113
H          1.92354       -2.41768       -0.71553
C          3.18967       -1.88487        0.96127
C          3.16480       -1.49488        2.30413
H          2.23727       -1.09534        2.72033
C          4.37203       -2.42318        0.41409
C          4.42566       -2.90054       -1.00824
H          4.08004       -2.13173       -1.71455
H          3.78702       -3.78760       -1.15685
H          5.45061       -3.17526       -1.29080
C          4.29890       -1.59661        3.10347
H          4.26144       -1.28245        4.14920
C          5.50300       -2.51471        1.23033
H          6.42746       -2.91537        0.80651
C          5.47774       -2.10045        2.55939
H          6.37957       -2.17775        3.17130
C          4.45844        0.53026       -0.80811
C          5.51059        0.30085       -1.69678
H          5.27498        0.00108       -2.71956
C          4.71835        0.93753        0.50099
H          3.90097        1.10981        1.19710
C          6.82581        0.45039       -1.26733
H          7.64405        0.26307       -1.96696
C          6.03970        1.07948        0.91759
H          6.23725        1.38018        1.94898
C          7.09797        0.83536        0.04485
H          8.12986        0.94726        0.38426
C          1.44720        2.17267        0.78996
C          1.83190        3.05150       -0.22703
H          2.35675        2.67507       -1.10579
C          0.82969        2.66380        1.94313
H          0.55877        1.96648        2.73762
C          1.55461        4.41186       -0.09688
H          1.85491        5.09348       -0.89626
C          0.56480        4.02447        2.06264
H          0.07430        4.39828        2.96440
C          0.91533        4.90466        1.03859
H          0.70161        5.97134        1.13180
