88
Cat673.ts34.5.log	Energy: -2149888.8918230
C          0.09414       -0.88638       -3.49034
H         -0.61323       -0.44955       -4.20073
H          1.13944       -0.67419       -3.74111
C         -0.23368       -2.13230       -2.87828
H         -1.21948       -2.57433       -3.05272
H          0.55247       -2.89016       -2.77815
H          0.22696       -1.85654       -1.29454
Co        -0.45833       -0.57974       -1.58308
C          1.38596        2.27987       -1.79211
O          1.41737        0.88509        0.54823
O          2.74356        0.11560       -1.52276
C         -1.82085        0.30712        1.41066
O         -2.86612       -1.76912       -0.05607
O         -0.75055       -2.00479        1.37123
P         -1.42556       -1.02633        0.22888
P          1.21378        0.60108       -1.07906
C         -1.78531        0.39206       -2.14864
O         -2.65035        1.02342       -2.57884
H          2.34893        2.70325       -1.45845
H          1.47718        2.12896       -2.88048
C          0.22390        3.20987       -1.46974
H          0.02971        3.19242       -0.38396
H         -0.69337        2.82599       -1.94242
C          0.47142        4.64116       -1.91907
H          1.35305        5.07284       -1.41733
H          0.65401        4.69257       -3.00424
H         -0.39057        5.28766       -1.69470
C          2.53486        1.56723        1.09505
H          2.89115        0.95234        1.93933
H          3.35475        1.60754        0.35940
C          2.18477        2.95866        1.58654
H          3.09001        3.38539        2.05419
H          1.95455        3.60975        0.72644
C          1.02609        2.98940        2.57103
H          1.27744        2.36876        3.44954
H          0.15683        2.50232        2.10148
C          0.64943        4.39319        3.01314
H          1.49203        4.90147        3.50915
H          0.35293        5.01351        2.15164
H         -0.19474        4.38315        3.71945
C          3.07767       -1.25125       -1.67557
H          2.47269       -1.87640       -0.99649
H          2.84061       -1.57020       -2.70553
C          4.55310       -1.45483       -1.40535
H          4.80697       -2.49117       -1.69092
H          5.12731       -0.79886       -2.08273
C          4.97102       -1.20279        0.03589
H          4.38745       -1.86061        0.70269
H          4.69251       -0.17399        0.31261
C          6.45645       -1.41512        0.27534
H          6.75926       -2.44699        0.03385
H          7.06259       -0.74132       -0.35152
H          6.72872       -1.22675        1.32501
H         -2.34051       -0.15315        2.26787
H         -0.83548        0.63670        1.77699
C         -2.60641        1.47563        0.83484
H         -3.48695        1.10549        0.28450
H         -1.98349        1.98752        0.08555
C         -3.04817        2.46677        1.89989
H         -3.71456        1.99101        2.63782
H         -2.18588        2.87402        2.45145
H         -3.59232        3.31464        1.45696
C         -3.71567       -2.27734        0.96091
H         -4.07148       -3.25731        0.60086
H         -3.14114       -2.45961        1.88512
C         -4.89874       -1.36345        1.22143
H         -5.55548       -1.86071        1.95748
H         -4.55064       -0.43632        1.70781
C         -5.68727       -1.01066       -0.03182
H         -6.09430       -1.93576       -0.47717
H         -4.99200       -0.60003       -0.78223
C         -6.81060       -0.02219        0.23240
H         -7.53273       -0.41549        0.96646
H         -6.41737        0.92588        0.63477
H         -7.36611        0.21512       -0.68734
C          0.20870       -3.00915        1.11884
H         -0.14046       -3.92755        1.62153
H          0.26742       -3.22668        0.03813
C          1.56213       -2.58230        1.64709
H          2.30603       -3.35183        1.37328
H          1.84785       -1.65422        1.12505
C          1.58558       -2.33857        3.14868
H          1.30277       -3.26790        3.67480
H          0.80310       -1.60142        3.39218
C          2.93433       -1.85200        3.65212
H          3.73321       -2.57985        3.43510
H          3.21900       -0.90362        3.16879
H          2.92653       -1.68151        4.73936
