60
Cat697.ts34.5.log	Energy: -1763951.0123378
C          1.90559        2.60786       -0.73057
H          1.56017        3.64565       -0.71486
H          2.84165        2.46162       -0.17605
C          1.69739        1.83669       -1.91694
H          1.11797        2.26872       -2.74032
H          2.52492        1.21571       -2.28326
H          1.21863        0.40367       -1.30058
Co         0.42618        1.30488       -0.42152
C          2.90815       -0.33453        1.27050
C          1.61129        1.74710        2.68689
C          0.32416       -0.73731        2.41179
C         -2.61542       -0.10364       -0.01876
C         -1.79408        0.38604       -2.74361
C         -0.66943       -1.78651       -1.31350
P         -1.11284       -0.01835       -1.08675
P          1.25567        0.48912        1.39516
C         -0.68194        2.55564        0.04298
O         -1.42043        3.37237        0.40020
H          3.28911       -0.56927        2.28038
H          3.57823        0.43131        0.84573
C          2.89463       -1.57598        0.39240
H          2.29387       -2.36165        0.88327
H          2.36951       -1.33813       -0.55087
C          4.27107       -2.15577        0.05519
H          4.80711       -2.32923        1.00756
C          4.11753       -3.49965       -0.64822
H          3.55372       -4.21653       -0.03087
H          5.09560       -3.94958       -0.87898
H          3.57334       -3.38101       -1.60039
C          5.10597       -1.19819       -0.78817
H          6.08859       -1.63294       -1.02800
H          5.28682       -0.24063       -0.27759
H          4.59739       -0.97599       -1.74179
H          2.28822        2.50567        2.26877
H          0.67169        2.25180        2.95619
H          2.06489        1.31039        3.59095
H          0.89555       -1.06096        3.29670
H         -0.61583       -0.27415        2.74767
H          0.06803       -1.62243        1.81207
H         -2.95641        0.94067        0.08745
H         -2.23446       -0.39000        0.97430
C         -3.76494       -1.00158       -0.44755
H         -4.08819       -0.72625       -1.46570
H         -3.42584       -2.05149       -0.50908
C         -4.98785       -0.94370        0.47457
H         -5.30401        0.11476        0.53538
C         -6.13992       -1.74393       -0.12217
H         -6.40286       -1.38356       -1.12903
H         -7.04252       -1.67865        0.50489
H         -5.87278       -2.81059       -0.20927
C         -4.67155       -1.42013        1.88807
H         -5.56702       -1.38359        2.52738
H         -3.89845       -0.80488        2.37207
H         -4.31314       -2.46362        1.87759
H         -2.26119        1.38068       -2.69891
H         -0.95751        0.44016       -3.45531
H         -2.52774       -0.35089       -3.10493
H         -0.32903       -2.20873       -0.35736
H         -1.50728       -2.38700       -1.69763
H          0.16959       -1.84603       -2.02172
