110
Cat641.ts34.5.log	Energy: -2300201.1715998
C          0.58373       -1.29596       -3.07072
H          0.42542       -0.76501       -4.01349
H          1.62272       -1.61474       -2.92733
C         -0.45168       -2.13557       -2.57156
H         -1.40961       -2.17715       -3.09733
H         -0.17826       -3.11025       -2.14930
H         -0.46764       -1.73902       -0.94730
Co        -0.32317       -0.38319       -1.53089
C          2.13073       -1.50494        0.48979
C          2.97081        0.47075       -1.54612
C          1.61112        1.33341        0.80802
C         -2.10403        1.75348        0.44155
C         -3.58860       -0.57322       -0.44869
C         -1.59453       -0.79863        1.59647
P         -1.85766       -0.03533       -0.06842
P          1.53821       -0.00354       -0.46783
C         -0.77007        0.99445       -2.48692
O         -1.07087        1.93880       -3.08711
H          1.38883       -1.59987        1.29878
H          1.94462       -2.34867       -0.18966
C          3.52131       -1.52524        1.04002
C          3.79532       -0.87926        2.25281
H          2.96733       -0.43651        2.81280
C          4.58123       -2.14578        0.34302
C          4.34520       -2.92898       -0.91710
H          3.90489       -2.31558       -1.71737
H          3.65274       -3.76916       -0.74540
H          5.28635       -3.34667       -1.29988
C          5.09127       -0.77891        2.75007
H          5.27718       -0.25906        3.69284
C          5.87819       -2.03489        0.85520
H          6.70102       -2.50535        0.30971
C          6.14410       -1.34694        2.03723
H          7.16896       -1.27213        2.40801
H          3.22018       -0.43140       -2.12553
H          2.54675        1.16806       -2.28797
C          4.22731        1.05381       -0.90762
H          4.03901        2.09669       -0.60082
H          4.48354        0.51199        0.01404
C          5.43413        1.01595       -1.83459
H          5.21024        1.56486       -2.76776
H          5.61855       -0.03102       -2.13869
C          6.69677        1.57728       -1.19656
H          6.51602        2.62459       -0.89548
H          6.89407        1.02636       -0.25984
C          7.91589        1.50719       -2.10155
H          8.81168        1.91886       -1.61198
H          7.75663        2.07335       -3.03354
H          8.14139        0.46646       -2.38578
H          0.88739        1.06272        1.59605
H          2.60251        1.35625        1.28832
C          1.26180        2.69715        0.22641
H          2.07119        3.03356       -0.44344
H          0.37371        2.60060       -0.41835
C          1.00956        3.76340        1.28228
H          1.91727        3.89962        1.89791
H          0.22947        3.40843        1.98165
C          0.57920        5.10099        0.69753
H          1.35861        5.46003        0.00244
H         -0.32210        4.94567        0.07809
C          0.29968        6.16019        1.75093
H         -0.00908        7.11396        1.29699
H          1.19217        6.35811        2.36638
H         -0.50543        5.84093        2.43236
H         -1.32386        1.94107        1.19382
H         -1.84207        2.35627       -0.43690
C         -3.45145        2.13166        0.97260
C         -3.76285        1.92577        2.32236
H         -2.98923        1.53982        2.99161
C         -4.43186        2.68596        0.12058
C         -4.13009        3.01021       -1.31557
H         -3.73772        2.14992       -1.87891
H         -3.36371        3.79885       -1.39511
H         -5.02978        3.36888       -1.83382
C         -5.02560        2.21605        2.83188
H         -5.24170        2.04453        3.88903
C         -5.69585        2.97030        0.64804
H         -6.45681        3.39642       -0.01170
C         -6.00274        2.73274        1.98575
H         -6.99986        2.96433        2.36747
H         -4.13868       -0.65270        0.50469
H         -4.06646        0.24974       -1.00160
C         -3.70039       -1.85164       -1.26331
H         -3.22745       -1.68153       -2.24256
H         -3.11997       -2.66480       -0.79532
C         -5.13982       -2.30456       -1.45744
H         -5.72152       -1.48486       -1.91764
H         -5.60716       -2.48154       -0.47124
C         -5.26864       -3.55839       -2.31114
H         -4.79836       -3.37471       -3.29340
H         -4.68087       -4.37141       -1.84881
C         -6.70570       -4.01309       -2.50749
H         -6.76506       -4.92014       -3.12800
H         -7.30728       -3.23273       -3.00094
H         -7.18910       -4.23762       -1.54289
H         -0.65901       -0.35884        1.98272
H         -2.40375       -0.45906        2.26359
C         -1.49516       -2.31543        1.61976
H         -2.47856       -2.75830        1.38717
H         -0.81549       -2.64862        0.81597
C         -0.99963       -2.85938        2.95247
H         -1.67402       -2.52781        3.76293
H         -0.01522       -2.41075        3.18355
C         -0.87588       -4.37601        2.98034
H         -1.85990       -4.82333        2.75372
H         -0.20774       -4.69575        2.16101
C         -0.35807       -4.91575        4.30346
H         -0.27917       -6.01332        4.29228
H         -1.02422       -4.63870        5.13643
H          0.64134       -4.51305        4.53438
