90
Cat647.ts34.5.log	Energy: -2386709.3969386
C         -0.87554       -2.74305       -1.77711
H         -0.44949       -3.71207       -1.50119
H         -1.96832       -2.75444       -1.86356
C         -0.12333       -1.87914       -2.61206
H          0.88480       -2.16767       -2.92864
H         -0.65037       -1.29817       -3.37790
H         -0.14934       -0.36669       -1.83304
Co        -0.07562       -1.26741       -0.65717
C         -2.96236        0.22118       -1.54827
C         -3.00101       -0.92374        1.10539
C         -1.56260        1.48022        0.68479
C          2.18449        0.20753        1.39571
C          3.27977       -1.14095       -0.94063
C          1.96600        1.35725       -1.28006
P          1.78378       -0.22817       -0.37852
P         -1.83265       -0.16144       -0.09745
C          0.25280       -2.33357        0.66336
O          0.48251       -3.00981        1.57360
H         -2.47724        1.04997       -2.08586
H         -2.86014       -0.65595       -2.20202
C         -4.40079        0.51417       -1.25103
C         -4.80548        1.81432       -0.92323
H         -4.06993        2.62026       -0.93381
C         -5.36311       -0.51894       -1.25203
C         -5.00555       -1.92531       -1.63539
H         -4.24817       -2.34861       -0.95883
H         -4.59790       -1.97730       -2.65826
H         -5.88791       -2.57815       -1.59492
C         -6.11983        2.10092       -0.56610
H         -6.40397        3.12419       -0.30932
C         -6.67946       -0.21396       -0.89177
H         -7.42110       -1.01739       -0.88632
C         -7.06297        1.07741       -0.54079
H         -8.09830        1.28374       -0.25913
C         -2.95476       -2.30704        1.30675
C         -3.97489       -0.17348        1.77941
C         -4.83256       -2.17851        2.81848
C         -4.88386       -0.79737        2.62886
C         -3.86488       -2.93228        2.15798
H         -2.19804       -2.89595        0.78538
H         -3.81292       -4.01345        2.30673
H         -5.54670       -2.66675        3.48630
H         -5.64197       -0.19983        3.14057
H         -4.02797        0.90708        1.63433
C         -1.59362        2.69119       -0.01412
C         -1.17660        1.50249        2.03499
C         -0.91338        3.90436        1.96386
C         -0.85225        2.69883        2.66708
C         -1.28744        3.89414        0.62293
H         -1.84107        2.71055       -1.07652
H         -1.33071        4.82815        0.05736
H         -0.66878        4.84537        2.46193
H         -0.55474        2.69163        3.71853
H         -1.13244        0.56498        2.59640
H          1.48961        1.02229        1.64981
H          1.84664       -0.66483        1.97057
C          3.60246        0.56264        1.71747
C          4.05325        1.87934        1.56085
H          3.34693        2.64933        1.24572
C          4.51299       -0.42866        2.14372
C          4.08093       -1.84962        2.35813
H          3.68509       -2.29849        1.43477
H          3.28376       -1.92497        3.11526
H          4.92346       -2.46786        2.69626
C          5.38365        2.22317        1.78306
H          5.71000        3.25686        1.64641
C          5.84474       -0.06425        2.36786
H          6.55107       -0.83305        2.69297
C          6.28806        1.24255        2.18246
H          7.33628        1.49501        2.35993
C          3.16100       -2.50669       -1.21948
C          4.53570       -0.52811       -1.05735
C          5.52391       -2.64204       -1.68817
C          5.64980       -1.27741       -1.42551
C          4.27693       -3.25600       -1.58906
H          2.17703       -2.97421       -1.13055
H          4.17012       -4.32268       -1.80026
H          6.40133       -3.22680       -1.97557
H          6.62534       -0.79129       -1.50073
H          4.64601        0.53887       -0.85329
C          1.57279        2.57496       -0.71703
C          2.37635        1.33751       -2.62080
C          2.03596        3.72343       -2.79285
C          2.41244        2.51028       -3.36978
C          1.61356        3.74996       -1.46591
H          1.21430        2.61905        0.31247
H          1.30633        4.69102       -1.00342
H          2.06964        4.64507       -3.37871
H          2.73994        2.47645       -4.41175
H          2.67661        0.39303       -3.08140
