100
Cat629.ts34.5.log	Energy: -2624766.3401482
C         -0.96819       -3.56492       -0.75724
H         -2.04780       -3.67394       -0.89427
H         -0.36362       -4.07777       -1.51056
C         -0.45132       -3.40404        0.54454
H         -1.13899       -3.46661        1.39446
H          0.55980       -3.75217        0.77924
H         -0.63583       -1.74925        0.91512
Co        -0.33971       -1.64038       -0.53193
C          0.80098        0.39619        1.75963
O          2.67164       -1.16539        0.84017
O          1.86430        0.56839       -0.89163
C         -2.96532       -0.12334       -2.16141
O         -3.46683       -1.28124        0.12046
O         -2.30311        0.88985        0.26028
P         -2.13292       -0.56086       -0.57566
P          1.26310       -0.50446        0.22067
C          0.11969       -1.62127       -2.20859
O          0.34938       -1.58277       -3.33547
H          0.68796       -0.44459        2.46646
H         -0.21301        0.76021        1.54835
C          1.64175        1.48740        2.33529
C          1.19162        2.81247        2.27626
H          0.22557        3.03432        1.81556
C          2.88173        1.22009        2.92637
H          3.23416        0.18887        2.97652
C          1.97904        3.85092        2.77029
H          1.61604        4.87944        2.70609
C          3.67003        2.25791        3.41521
H          4.64279        2.03525        3.86055
C          3.22496        3.57793        3.33364
H          3.84624        4.39158        3.71559
C          3.50487       -2.02566        0.16711
C          3.00808       -3.10283       -0.56690
H          1.92950       -3.23413       -0.63647
C          4.88628       -1.79096        0.26877
C          5.41657       -0.65189        1.08107
H          4.91736        0.29319        0.82450
H          5.24771       -0.82285        2.15663
H          6.49628       -0.53007        0.92234
C          3.88401       -3.95893       -1.23079
H          3.48460       -4.79468       -1.80972
C          5.73965       -2.66527       -0.41043
H          6.81720       -2.49030       -0.34878
C          5.25590       -3.73805       -1.15778
H          5.95160       -4.39932       -1.67892
C          3.10439        1.15055       -1.03466
C          3.46273        2.25830       -0.27051
H          2.75893        2.65355        0.45813
C          3.95235        0.65292       -2.03941
C          3.51833       -0.45715       -2.94258
H          3.33353       -1.38871       -2.38855
H          2.57946       -0.20447       -3.45642
H          4.28609       -0.66376       -3.69990
C          4.71061        2.85179       -0.44658
H          4.98466        3.71193        0.16820
C          5.20209        1.26347       -2.18653
H          5.87950        0.87940       -2.95395
C          5.59208        2.34273       -1.39605
H          6.57675        2.79453       -1.53609
H         -3.24777       -1.09750       -2.59336
H         -2.18182        0.29422       -2.81200
C         -4.13217        0.80918       -2.03619
C         -3.98348        2.17118       -2.32330
H         -3.01946        2.54598       -2.67552
C         -5.37688        0.35220       -1.58423
H         -5.50433       -0.70654       -1.35212
C         -5.04429        3.05739       -2.14882
H         -4.90342        4.11750       -2.37223
C         -6.43857        1.23621       -1.41258
H         -7.40201        0.86204       -1.05774
C         -6.27521        2.59373       -1.68893
H         -7.10799        3.28731       -1.55025
C         -3.43951       -1.91146        1.33002
C         -2.78727       -1.35889        2.43367
H         -2.31509       -0.38098        2.33712
C         -4.11483       -3.14000        1.42216
C         -4.85287       -3.68383        0.23795
H         -5.27269       -4.67511        0.45530
H         -5.67971       -3.01612       -0.05236
H         -4.19869       -3.77061       -0.64318
C         -2.76030       -2.05537        3.64049
H         -2.24216       -1.62386        4.50006
C         -4.07797       -3.81074        2.64702
H         -4.59272       -4.77154        2.73336
C         -3.39899       -3.28814        3.74770
H         -3.38078       -3.83941        4.69023
C         -1.76225        2.09739       -0.05593
C         -0.70514        2.25127       -0.95091
H         -0.26936        1.38305       -1.44443
C         -2.33055        3.20456        0.60041
C         -3.50575        2.99852        1.50252
H         -4.33843        2.54015        0.94474
H         -3.26512        2.30902        2.32688
H         -3.84834        3.94993        1.93118
C         -0.17436        3.52025       -1.18332
H          0.66958        3.62740       -1.86831
C         -1.78334        4.46206        0.34233
H         -2.21729        5.33256        0.84207
C         -0.70996        4.62909       -0.53605
H         -0.29770        5.62465       -0.71342
