84
Cat621.ts34.5.log	Energy: -3490693.4212124
C         -0.49628       -3.30578       -1.67179
H         -0.32700       -4.28912       -1.22336
H         -1.49578       -3.18811       -2.10670
C          0.59353       -2.64232       -2.29460
H          1.59834       -3.07364       -2.25082
H          0.41319       -2.11647       -3.24004
H          0.39916       -1.07570       -1.72662
Co         0.15909       -1.82106       -0.47617
C         -2.04825        0.19561       -1.89515
C         -3.23246       -1.52291        0.18790
C         -1.70298        0.63481        1.02133
C          2.19865       -0.23279        1.83716
C          3.39836       -0.94209       -0.63862
C          1.48944        1.20072       -0.62390
P          1.75609       -0.48964        0.03765
P         -1.67040       -0.66528       -0.27851
C          0.30301       -2.84989        0.91818
O          0.38538       -3.48634        1.87965
H         -1.90594       -0.62716       -2.61513
H         -1.18332        0.86471       -2.03202
C         -3.33057        0.91210       -2.19165
C         -3.34931        2.30384       -2.36192
H         -2.41587        2.87026       -2.28510
C         -4.52980        0.20768       -2.36243
H         -4.53192       -0.88055       -2.26938
C         -4.53575        2.97549       -2.64974
H         -4.52513        4.06054       -2.77844
C         -5.71691        0.87694       -2.64974
H         -6.64121        0.30727       -2.77291
C         -5.72713        2.26461       -2.78483
H         -6.65872        2.78904       -3.00976
C         -3.27583       -2.91996        0.21414
H         -2.37596       -3.48366       -0.03530
C         -4.37942       -0.80876        0.56433
H         -4.36475        0.28271        0.58391
C         -4.43944       -3.59651        0.57330
H         -4.46943       -4.68696        0.59586
C         -5.54819       -1.46916        0.92454
H         -6.44031       -0.91125        1.21322
C         -5.57274       -2.86432        0.91947
Cl        -7.02538       -3.69328        1.36603
C         -2.14312        1.94952        0.84684
H         -2.52534        2.27958       -0.11791
C         -1.24186        0.24910        2.28864
H         -0.90621       -0.77926        2.44915
C         -2.10047        2.86724        1.89524
H         -2.44001        3.89430        1.75018
C         -1.19732        1.15079        3.34601
H         -0.83577        0.84547        4.32940
C         -1.61691        2.46658        3.13803
Cl        -1.54160        3.60525        4.43927
H          2.08144       -1.23009        2.28667
H          1.41091        0.39864        2.27296
C          3.57262        0.30433        2.08983
C          3.84262        1.67822        2.08408
H          3.02614        2.39154        1.95657
C          4.64296       -0.58210        2.26872
H          4.45022       -1.65800        2.27559
C          5.14609        2.14969        2.23057
H          5.33507        3.22594        2.22259
C          5.94552       -0.11453        2.41290
H          6.76512       -0.82555        2.54050
C          6.20349        1.25558        2.38787
H          7.22551        1.62558        2.49780
C          3.72331       -2.30118       -0.69019
H          2.95738       -3.03785       -0.43176
C          4.37787        0.00247       -0.96715
H          4.15175        1.06925       -0.91151
C          5.00275       -2.71784       -1.04668
H          5.26081       -3.77751       -1.07998
C          5.65674       -0.39932       -1.33626
H          6.42473        0.33536       -1.58240
C          5.96307       -1.75967       -1.36746
Cl         7.55931       -2.26423       -1.80774
C          0.98398        2.24758        0.15000
H          0.85767        2.13442        1.22791
C          1.59346        1.39037       -2.01159
H          1.98083        0.58491       -2.64141
C          0.57630        3.44524       -0.43529
H          0.16313        4.24792        0.17692
C          1.18861        2.57635       -2.61092
H          1.25865        2.71165       -3.69133
C          0.66495        3.59686       -1.81457
Cl         0.08551        5.05047       -2.55713
