108
Cat683.ts34.5.log	Energy: -2720769.1873168
C          0.40765       -3.14098       -0.62436
H          0.21709       -3.56882       -1.61308
H          1.40467       -3.36610       -0.23046
C         -0.68342       -2.97088        0.26703
H         -1.70062       -3.20238       -0.06705
H         -0.53718       -3.20107        1.32544
H         -0.52895       -1.41071        0.87262
Co        -0.10822       -1.19984       -0.52730
C          1.39936        0.69338        1.94909
C          3.13206       -1.18025        0.79263
C          2.23533        1.06934       -0.89036
C         -2.22911        0.97219       -2.10070
C         -3.48792       -0.86410       -0.41831
C         -1.86041        1.26023        0.84651
P         -1.86923        0.04619       -0.54528
P          1.62664       -0.17769        0.33664
C          0.08643       -1.12150       -2.23836
O          0.17366       -1.11107       -3.39467
H          0.66637        1.49004        1.77950
H          0.90275       -0.06981        2.56902
C          2.63399        1.22381        2.65813
H          3.21149        1.86285        1.97180
H          3.30093        0.38373        2.91214
C          2.27797        1.99395        3.92100
H          1.62220        2.85014        3.69440
H          1.72971        1.35522        4.63282
H          3.17376        2.37609        4.43574
C          4.45863       -0.93619        0.38436
O          4.70928        0.24621       -0.20609
C          5.91844        0.46452       -0.86678
H          5.81440        1.42488       -1.38915
H          6.77054        0.52606       -0.16606
H          6.12784       -0.32479       -1.61030
C          2.92245       -2.30207        1.61900
O          1.69137       -2.40786        2.16970
C          1.41409       -3.47365        3.02933
H          0.38841       -3.32471        3.39145
H          2.09820       -3.48960        3.89594
H          1.46763       -4.44619        2.50964
C          3.93689       -3.23090        1.88237
H          3.74534       -4.11118        2.49408
C          5.48131       -1.86393        0.62905
H          6.49488       -1.67466        0.27706
C          5.20540       -3.01231        1.35888
H          6.00107       -3.73611        1.55066
C          2.12590        2.46457       -0.79501
O          1.66936        3.00339        0.36749
C          2.20422        4.22267        0.79477
H          1.88135        4.35960        1.83564
H          3.30729        4.21703        0.75337
H          1.83857        5.08319        0.20581
C          2.72624        0.55005       -2.11173
O          2.89656       -0.78356       -2.13348
C          3.29895       -1.42481       -3.30849
H          3.32557       -2.49724       -3.07765
H          4.30614       -1.10031       -3.62602
H          2.57951       -1.25189       -4.12550
C          3.04983        1.37044       -3.19276
H          3.40989        0.94137       -4.12695
C          2.46631        3.30003       -1.86980
H          2.36470        4.38099       -1.77117
C          2.91385        2.75009       -3.06154
H          3.16353        3.40223       -3.90180
H         -1.34960        1.59304       -2.31730
H         -2.24828        0.17150       -2.85778
C         -3.52031        1.77419       -2.14984
H         -3.57568        2.45014       -1.28290
H         -4.37550        1.08550       -2.05141
C         -3.65082        2.57348       -3.43739
H         -2.83144        3.30407       -3.53731
H         -3.60975        1.91704       -4.32169
H         -4.60096        3.12901       -3.47735
C         -4.57183       -0.53460        0.41826
O         -4.52466        0.66253        1.03067
C         -5.43357        0.97209        2.04291
H         -5.10595        1.92936        2.46940
H         -6.46275        1.08345        1.65722
H         -5.43547        0.20785        2.84043
C         -3.63243       -2.00741       -1.23194
O         -2.67990       -2.18484       -2.16540
C         -2.61026       -3.37192       -2.90076
H         -1.71375       -3.28648       -3.52776
H         -3.49288       -3.50528       -3.55071
H         -2.50978       -4.25217       -2.24212
C         -4.71860       -2.88086       -1.09151
H         -4.79509       -3.77677       -1.70650
C         -5.66336       -1.40102        0.56965
H         -6.48296       -1.14770        1.24128
C         -5.71434       -2.57540       -0.17224
H         -6.56574       -3.25020       -0.05494
C         -1.99216        0.76376        2.15942
O         -2.26837       -0.55208        2.25496
C         -2.26247       -1.18176        3.49996
H         -2.44422       -2.24711        3.30761
H         -1.29079       -1.06463        4.01191
H         -3.06047       -0.80001        4.16161
C         -1.52296        2.61742        0.70436
O         -1.31425        3.06722       -0.54863
C         -1.12398        4.42879       -0.78569
H         -1.00852        4.54062       -1.87161
H         -0.21402        4.80880       -0.29556
H         -1.98993        5.02720       -0.45095
C         -1.39187        3.45543        1.82233
H         -1.14063        4.50744        1.69532
C         -1.85223        1.58498        3.28046
H         -1.96167        1.18165        4.28634
C         -1.55695        2.93261        3.09737
H         -1.44296        3.58370        3.96728
