90
Cat649.ts34.5.log	Energy: -2635687.6283125
C         -0.78183       -2.66852       -2.08877
H         -0.39121       -3.66311       -1.85463
H         -1.86319       -2.65531       -2.26791
C          0.04750       -1.75708       -2.78941
H          1.07539       -2.03799       -3.04294
H         -0.40700       -1.11158       -3.54989
H         -0.03548       -0.30538       -1.90073
Co        -0.06423       -1.29452       -0.79624
C         -2.87206        0.27196       -1.80314
C         -3.11423       -1.04925        0.75597
C         -1.65785        1.37041        0.60873
C          2.00075       -0.01218        1.56828
C          3.29781       -1.14596       -0.77861
C          2.01561        1.37326       -0.99852
P          1.75609       -0.28654       -0.26634
P         -1.85785       -0.21647       -0.29901
C          0.15828       -2.47451        0.44752
O          0.31328       -3.23178        1.30826
H         -2.34963        1.13418       -2.24448
H         -2.71931       -0.55746       -2.50727
C         -4.32897        0.54810       -1.59304
C         -4.76006        1.82421       -1.20896
H         -4.02959        2.62970       -1.11752
C         -5.28534       -0.48146       -1.73080
C         -4.89790       -1.85811       -2.18639
H         -4.17961       -2.32689       -1.49738
H         -4.42983       -1.83897       -3.18426
H         -5.77745       -2.51333       -2.24410
C         -6.09700        2.08764       -0.92498
H         -6.40231        3.09203       -0.62230
C         -6.62443       -0.20006       -1.44215
H         -7.36221       -1.00075       -1.54240
C         -7.03563        1.06525       -1.03231
H         -8.08856        1.25321       -0.80953
C         -4.14541       -0.34419        1.39451
H         -4.19492        0.74319        1.31525
C         -3.08322       -2.44291        0.87300
H         -2.28670       -3.00221        0.37951
C         -5.12076       -1.01086        2.12686
H         -5.93129       -0.47280        2.62118
C         -4.05373       -3.12613        1.60173
H         -4.03620       -4.21270        1.70170
C         -5.06304       -2.39744        2.21712
F         -5.99625       -3.04038        2.91485
C         -1.39392        1.31051        1.98693
H         -1.39396        0.34164        2.49377
C         -1.63326        2.62460       -0.01004
H         -1.78604        2.71488       -1.08631
C         -1.13641        2.45981        2.72650
H         -0.93471        2.41712        3.79844
C         -1.39627        3.78929        0.71876
H         -1.38963        4.76946        0.23862
C         -1.14923        3.69299        2.08059
F         -0.91566        4.79922        2.78313
H          1.29495        0.78965        1.83275
H          1.60560       -0.92506        2.03319
C          3.38913        0.28869        2.03959
C          3.86368        1.60637        2.04456
H          3.19304        2.41570        1.75063
C          4.25143       -0.75344        2.44447
C          3.78789       -2.17981        2.49480
H          3.45373       -2.53634        1.50901
H          2.93716       -2.30863        3.18337
H          4.59565       -2.84209        2.83422
C          5.17476        1.90515        2.40431
H          5.52075        2.94134        2.39362
C          5.56412       -0.43455        2.80748
H          6.23388       -1.24183        3.11603
C          6.03395        0.87590        2.78064
H          7.06651        1.09260        3.06465
C          4.55825       -0.53119       -0.72777
H          4.64886        0.51141       -0.41653
C          3.21413       -2.48006       -1.19185
H          2.23011       -2.95377       -1.23337
C          5.70712       -1.23818       -1.06412
H          6.69491       -0.77656       -1.01829
C          4.35604       -3.20131       -1.53106
H          4.30433       -4.24335       -1.85126
C          5.58992       -2.56751       -1.45709
F          6.68855       -3.24627       -1.77661
C          2.53177        1.47372       -2.29884
H          2.85957        0.57303       -2.82361
C          1.59038        2.54199       -0.36002
H          1.14994        2.49941        0.63711
C          2.64248        2.70507       -2.93579
H          3.04825        2.79260       -3.94527
C          1.69999        3.78355       -0.98170
H          1.37530        4.69866       -0.48355
C          2.22831        3.84973       -2.26357
F          2.33658        5.03265       -2.86442
