104
Cat608.ts34.5.log	Energy: -3156328.7195028
C         -1.22677        2.16879        3.75909
H         -0.81039        3.16321        3.94215
H         -2.32152        2.15389        3.74669
C         -0.53515        1.03334        4.27146
H          0.43711        1.16978        4.75777
H         -1.11942        0.23122        4.73710
H         -0.60578       -0.03124        3.00042
Co        -0.29562        1.21456        2.25804
O         -2.20456       -0.76986        0.67386
C         -3.57848        1.55129        1.33667
C         -1.63038        1.40572       -0.86278
O          1.50889        0.33750       -0.17117
C          2.80143        0.01467        2.32623
C          0.77908       -1.85930        1.28901
P          1.17202       -0.04695        1.42943
P         -1.89627        0.88643        0.89648
C          0.58701        2.66453        1.87208
O          1.19845        3.61636        1.64375
C         -3.22655       -1.43367        0.07214
C         -3.92419       -2.36827        0.84267
H         -3.64432       -2.49163        1.89050
C         -3.54819       -1.28072       -1.27951
H         -2.99446       -0.57960       -1.90109
C         -4.95902       -3.11207        0.28753
H         -5.51084       -3.83666        0.88848
C         -4.59306       -2.01084       -1.83559
H         -4.86357       -1.87570       -2.88366
C         -5.29738       -2.91958       -1.05029
Cl        -6.61071       -3.81713       -1.74531
H         -3.79325        1.10623        2.32099
H         -3.37894        2.61817        1.52925
C         -4.74207        1.36567        0.40980
C         -4.87530        2.11576       -0.76469
H         -4.14822        2.89482       -1.00623
C         -5.73457        0.42477        0.71240
H         -5.65388       -0.14750        1.64048
C         -5.94499        1.88298       -1.62822
H         -6.03563        2.47033       -2.54536
C         -6.81619        0.18312       -0.13532
C         -7.86534       -0.83096        0.21424
H         -7.65888       -1.30322        1.18472
H         -8.86341       -0.36767        0.26657
H         -7.91341       -1.62962       -0.54216
C         -6.90032        0.91856       -1.32533
H         -7.73426        0.74229       -2.01035
H         -0.97766        0.61813       -1.26831
H         -2.58534        1.37410       -1.41014
C         -0.95601        2.73548       -1.03694
C         -1.46294        3.91184       -0.47504
H         -2.37355        3.89084        0.12691
C          0.22026        2.81353       -1.79123
H          0.62581        1.89840       -2.22979
C         -0.79947        5.12278       -0.65996
H         -1.19728        6.03231       -0.20361
C          0.89356        4.01950       -1.99696
C          2.13776        4.07604       -2.83488
H          1.95687        4.62643       -3.77269
H          2.95221        4.59560       -2.30696
H          2.49558        3.07049       -3.09516
C          0.36940        5.17826       -1.41111
H          0.88557        6.13287       -1.54568
C          2.69464        0.63418       -0.76047
C          3.20245       -0.23023       -1.73321
H          2.64699       -1.13396       -1.98461
C          3.37428        1.81475       -0.44765
H          2.93601        2.52041        0.26014
C          4.41821        0.05226       -2.34575
H          4.83357       -0.62735       -3.09156
C          4.59912        2.09197       -1.05011
H          5.14795        3.00080       -0.79869
C          5.12369        1.19998       -1.98354
Cl         6.67373        1.51376       -2.69734
H          3.21693        1.01078        2.10995
H          2.45846        0.05670        3.37228
C          3.82634       -1.06572        2.15682
C          3.81229       -2.18548        2.99765
H          3.06880       -2.25536        3.79681
C          4.82163       -0.98315        1.17599
H          4.87110       -0.10051        0.53780
C          4.74968       -3.20380        2.83362
H          4.73095       -4.07116        3.49790
C          5.76328       -1.99750        0.98964
C          6.78782       -1.89805       -0.10265
H          6.86666       -0.87481       -0.49492
H          7.78213       -2.21551        0.24571
H          6.51569       -2.55124       -0.94835
C          5.71215       -3.11688        1.83125
H          6.44434       -3.91993        1.70831
H          1.24462       -2.34828        2.15827
H         -0.31123       -1.90123        1.41339
C          1.17653       -2.52384        0.00526
C          0.32656       -2.44037       -1.10383
H         -0.62561       -1.91513       -1.00863
C          2.38505       -3.21629       -0.12499
H          3.05461       -3.29091        0.73373
C          0.68995       -3.02753       -2.31306
H          0.01787       -2.95886       -3.17206
C          2.76523       -3.81046       -1.33238
C          4.07130       -4.54180       -1.45088
H          4.70415       -4.09995       -2.23732
H          4.63187       -4.50864       -0.50666
H          3.91548       -5.59865       -1.72013
C          1.90260       -3.70373       -2.43053
H          2.18179       -4.16059       -3.38431
