106
Cat648.ts34.5.log	Energy: -2673981.9528256
C         -0.72675       -2.54271       -2.30885
H         -0.38162       -3.56275       -2.11558
H         -1.78863       -2.48487       -2.57547
C          0.18152       -1.61102       -2.87589
H          1.21953       -1.90612       -3.06471
H         -0.19239       -0.90606       -3.62786
H          0.05766       -0.22687       -1.90517
Co        -0.08364       -1.28362       -0.87385
C         -2.76052        0.42061       -1.99929
C         -3.24349       -1.06127        0.43657
C         -1.74179        1.32937        0.57259
C          1.79800       -0.19589        1.72341
C          3.26267       -1.24099       -0.56520
C          2.08095        1.33293       -0.73691
P          1.71309       -0.35718       -0.13912
P         -1.89145       -0.18944       -0.44787
C          0.01812       -2.54309        0.30353
O          0.09043       -3.35789        1.12327
H         -2.18252        1.29441       -2.33627
H         -2.56738       -0.36719       -2.74048
C         -4.22310        0.72542       -1.89700
C         -4.65549        1.98858       -1.47331
H         -3.91534        2.76303       -1.26620
C         -5.18965       -0.26470       -2.17885
C         -4.79788       -1.62567       -2.67560
H         -4.16835       -2.15520       -1.94494
H         -4.22856       -1.56721       -3.61771
H         -5.68605       -2.24499       -2.86065
C         -6.00531        2.27496       -1.29073
H         -6.31069        3.26784       -0.95189
C         -6.54157        0.03957       -1.99156
H         -7.28688       -0.73219       -2.20263
C         -6.95635        1.29026       -1.54255
H         -8.01985        1.49601       -1.39972
C         -4.32045       -0.38187        1.03295
H         -4.34751        0.70946        1.02415
C         -3.24856       -2.45596        0.47011
H         -2.42165       -3.00176        0.01232
C         -5.35830       -1.07513        1.63130
H         -6.19925       -0.55216        2.09009
C         -4.28786       -3.16982        1.06715
H         -4.24952       -4.25919        1.07411
C         -5.35410       -2.47809        1.65057
O         -6.40584       -3.06811        2.25098
C         -6.45425       -4.46580        2.30472
H         -5.59835       -4.88592        2.86195
H         -7.38201       -4.72930        2.82840
H         -6.47396       -4.91559        1.29613
C         -1.59079        1.17831        1.96360
H         -1.65443        0.17985        2.40523
C         -1.63833        2.61872        0.05164
H         -1.69815        2.78673       -1.02480
C         -1.36311        2.26700        2.78889
H         -1.24560        2.14730        3.86760
C         -1.42846        3.73096        0.87039
H         -1.36041        4.71815        0.41315
C         -1.28527        3.56129        2.24939
O         -1.06848        4.56220        3.12507
C         -0.94647        5.86760        2.63591
H         -1.86660        6.20457        2.12652
H         -0.76437        6.51429        3.50347
H         -0.09840        5.96548        1.93441
H          1.07695        0.59700        1.97366
H          1.35953       -1.13078        2.09662
C          3.14193        0.06313        2.32817
C          3.62107        1.37407        2.44471
H          2.98229        2.20284        2.13454
C          3.96159       -1.00671        2.74940
C          3.49270       -2.43022        2.67432
H          3.26835       -2.72914        1.63924
H          2.57123       -2.58926        3.25727
H          4.25839       -3.11487        3.06373
C          4.89680        1.64111        2.93334
H          5.24754        2.67327        3.00686
C          5.23829       -0.71970        3.24349
H          5.87514       -1.54881        3.56395
C          5.71476        0.58582        3.32895
H          6.71953        0.77742        3.71334
C          4.53988       -0.68668       -0.36435
H          4.64070        0.33210        0.01558
C          3.17930       -2.54162       -1.06391
H          2.18860       -2.97452       -1.22500
C          5.68193       -1.42068       -0.63532
H          6.67636       -1.00216       -0.47022
C          4.32076       -3.29417       -1.34014
H          4.21138       -4.30847       -1.72426
C          5.58371       -2.73434       -1.12004
O          6.74773       -3.37155       -1.34816
C          6.71477       -4.68755       -1.82458
H          6.21897       -4.75620       -2.80900
H          7.75819       -5.01065       -1.93009
H          6.20025       -5.36602       -1.12140
C          1.58709        2.47354       -0.08973
H          1.02344        2.38168        0.84006
C          2.75542        1.51065       -1.94842
H          3.14193        0.64013       -2.48435
C          1.78513        3.74041       -0.61705
H          1.40301        4.62796       -0.10945
C          2.95793        2.77730       -2.49422
H          3.49479        2.86893       -3.43871
C          2.47571        3.90718       -1.82383
O          2.62250        5.17481       -2.25987
C          3.30629        5.39877       -3.46039
H          2.80416        4.91464       -4.31680
H          3.31325        6.48425       -3.62186
H          4.34940        5.03898       -3.41298
