106
Cat665.ts34.5.log	Energy: -2674071.9880537
C          0.70394       -1.77255       -3.22519
H          0.47686       -1.35226       -4.20793
H          1.74926       -2.07980       -3.11102
C         -0.31073       -2.47283       -2.52434
H         -1.32828       -2.50958       -2.92482
H         -0.03870       -3.38007       -1.97072
H         -0.23114       -1.85351       -0.99793
Co        -0.03152       -0.59920       -1.75818
C          2.44316       -1.74550        0.25246
O          2.99512        0.20989       -1.62724
O          1.76890        0.76615        0.61640
C         -2.32424        1.62567       -0.57610
O         -2.98693       -1.05712       -0.96917
O         -1.55981       -0.27332        1.05640
P         -1.68517       -0.09106       -0.60608
P          1.74358       -0.31741       -0.66980
C         -0.17205        0.73739       -2.86474
O         -0.23568        1.63406       -3.58476
H          1.67268       -1.95402        1.01110
H          2.39757       -2.57482       -0.46905
C          3.79670       -1.60282        0.87337
C          3.91278       -0.99077        2.12624
H          3.00340       -0.66083        2.63293
C          4.95616       -2.03966        0.20242
C          4.87313       -2.74112       -1.12238
H          4.29690       -2.16040       -1.85756
H          4.38368       -3.72505       -1.02483
H          5.87450       -2.90607       -1.54196
C          5.15728       -0.78247        2.71171
H          5.22802       -0.30136        3.69042
C          6.19944       -1.81133        0.79982
H          7.10330       -2.12967        0.27391
C          6.30850       -1.18627        2.03902
H          7.29420       -1.01793        2.47943
C          4.26806        0.65664       -1.38708
C          4.64053        1.35257       -0.23904
H          3.91046        1.52785        0.54889
C          5.19652        0.42579       -2.40548
H          4.87110       -0.09772       -3.30609
C          5.95750        1.79800       -0.07962
C          6.34419        2.52713        1.17389
H          5.68770        3.39376        1.34847
H          6.25055        1.86607        2.04991
H          7.38122        2.88797        1.12816
C          6.50442        0.86784       -2.24804
H          7.23428        0.68470       -3.04056
C          6.88812        1.54456       -1.09081
H          7.91939        1.88681       -0.97376
C          1.19094        1.99824        0.52985
C          0.55870        2.49551        1.67241
H          0.56088        1.88219        2.57441
C          1.23094        2.75992       -0.63882
H          1.74918        2.38706       -1.52262
C         -0.06969        3.74165        1.66167
C         -0.76180        4.26955        2.88469
H         -0.70900        3.55604        3.71894
H         -0.30778        5.21552        3.21987
H         -1.82464        4.47211        2.67909
C          0.59461        4.00084       -0.65631
H          0.60786        4.59039       -1.57581
C         -0.05475        4.48735        0.47351
H         -0.55483        5.45855        0.44015
H         -1.47335        2.19974       -0.17736
H         -2.41269        1.90775       -1.63441
C         -3.57464        1.90751        0.19892
C         -3.49913        2.06040        1.58774
H         -2.52232        1.98290        2.06858
C         -4.82449        2.00246       -0.44467
C         -4.94522        1.89010       -1.93670
H         -4.47007        0.97509       -2.31903
H         -4.46490        2.74382       -2.44381
H         -5.99968        1.86949       -2.24366
C         -4.64184        2.27759        2.35050
H         -4.56300        2.38772        3.43480
C         -5.96330        2.21519        0.33833
H         -6.93757        2.27310       -0.15413
C         -5.88299        2.34708        1.72193
H         -6.79130        2.50735        2.30769
C         -4.24228       -1.18422       -0.42853
C         -5.26823       -1.45866       -1.33075
H         -5.01677       -1.53422       -2.39139
C         -4.50567       -1.10559        0.94050
H         -3.70661       -0.88973        1.64585
C         -6.58597       -1.62228       -0.89321
C         -7.68178       -1.88694       -1.88512
H         -7.81056       -1.03386       -2.57097
H         -7.45601       -2.76787       -2.50621
H         -8.64395       -2.06287       -1.38436
C         -5.81609       -1.26851        1.37640
H         -6.03220       -1.18932        2.44424
C         -6.84968       -1.51946        0.47583
H         -7.87352       -1.63937        0.83883
C         -0.98507       -1.34872        1.66213
C         -1.18595       -2.65230        1.20567
H         -1.83999       -2.82631        0.34891
C         -0.19723       -1.11204        2.79121
H         -0.06660       -0.08756        3.13757
C         -0.56236       -3.73349        1.84157
C         -0.76505       -5.12414        1.31435
H         -0.35545       -5.22484        0.29628
H         -0.27338       -5.87288        1.95036
H         -1.83577       -5.37420        1.25624
C          0.40920       -2.18466        3.43433
H          1.03332       -2.00469        4.31273
C          0.24196       -3.48567        2.95743
H          0.73678       -4.31868        3.46225
