104
Cat603.ts34.5.log	Energy: -3156329.6807092
C         -0.04885       -2.52558       -2.76761
H         -0.01560       -3.61732       -2.71382
H         -1.00252       -2.14667       -3.14751
C          1.14961       -1.82008       -3.06521
H          2.09180       -2.37104       -3.15513
H          1.10175       -0.96651       -3.75140
H          1.13354       -0.55739       -1.95276
Co         0.66045       -1.65903       -1.09288
O         -0.44961        0.92329        0.28824
C         -1.80723        0.46237       -2.08617
C         -2.43745       -0.84968        0.46392
O          2.18985       -1.35133        1.74682
C          3.84205       -1.75443       -0.29634
C          2.65151        0.86133        0.30472
P          2.24714       -0.93273        0.10252
P         -1.01678       -0.40167       -0.62318
C          0.74035       -3.23126       -0.36694
O          0.81399       -4.29982        0.06700
C         -1.04341        2.12017        0.51898
C         -0.60147        3.23392       -0.20349
H          0.19596        3.10609       -0.93933
C         -2.02720        2.27992        1.50104
H         -2.34065        1.42527        2.09956
C         -1.17208        4.48514        0.01059
H         -0.83855        5.35435       -0.55828
C         -2.60472        3.52767        1.71300
H         -3.38418        3.65558        2.46576
C         -2.18591        4.62314        0.95806
Cl        -2.92322        6.17045        1.20893
H         -1.20171        1.37625       -2.19981
H         -1.55122       -0.17322       -2.94539
C         -3.27021        0.80456       -2.09738
C         -3.70995        2.02232       -1.56072
H         -2.97901        2.71295       -1.13913
C         -4.21827       -0.06474       -2.68092
C         -3.81471       -1.35659       -3.32712
H         -3.30211       -2.02551       -2.61978
H         -3.13465       -1.18713       -4.17838
H         -4.69339       -1.89477       -3.70621
C         -5.05438        2.38255       -1.56950
H         -5.36081        3.34062       -1.14330
C         -5.56634        0.31170       -2.67761
H         -6.29833       -0.36584       -3.12523
C         -5.99193        1.51774       -2.12773
H         -7.05199        1.78185       -2.14163
H         -1.95810       -1.05227        1.43539
H         -3.04164        0.05800        0.57908
C         -3.31340       -2.00066        0.05678
C         -2.75706       -3.19953       -0.40192
H         -1.67332       -3.28334       -0.46623
C         -4.71548       -1.89305        0.17519
C         -5.35959       -0.66974        0.75905
H         -5.11987        0.23785        0.18450
H         -5.02307       -0.50456        1.79611
H         -6.45308       -0.77214        0.77290
C         -3.55872       -4.26983       -0.79107
H         -3.09616       -5.19205       -1.15036
C         -5.50567       -2.97290       -0.23204
H         -6.59284       -2.88696       -0.15144
C         -4.94325       -4.15021       -0.72104
H         -5.58801       -4.97614       -1.03112
C          1.05310       -1.19917        2.48656
C          0.22137       -2.29697        2.71825
H          0.48975       -3.26838        2.30368
C          0.73441        0.03983        3.04745
H          1.39977        0.88910        2.89011
C         -0.95233       -2.14499        3.45190
H         -1.62422       -2.99101        3.60442
C         -0.43342        0.19795        3.78493
H         -0.69489        1.16912        4.20744
C         -1.28688       -0.89016        3.95864
Cl        -2.80647       -0.66154        4.76560
H          3.66126       -2.79741        0.01421
H          3.86126       -1.76636       -1.39385
C          5.12550       -1.23252        0.27792
C          5.34050       -1.29188        1.66124
H          4.54753       -1.69185        2.29696
C          6.13615       -0.71416       -0.55938
C          5.96507       -0.63279       -2.04926
H          5.08754       -0.02887       -2.32785
H          5.83692       -1.63150       -2.49801
H          6.84432       -0.16982       -2.51682
C          6.53429       -0.85029        2.22578
H          6.68068       -0.90772        3.30690
C          7.33001       -0.27847        0.02725
H          8.11645        0.12152       -0.61857
C          7.53693       -0.34268        1.40271
H          8.48060        0.00474        1.82992
H          1.67966        1.31969        0.54026
H          3.27445        0.89567        1.20684
C          3.32074        1.58174       -0.83166
C          2.73194        1.61663       -2.10226
H          1.77070        1.12088       -2.25043
C          4.53043        2.28066       -0.62172
C          5.15693        2.38810        0.73770
H          5.36292        1.40410        1.18220
H          4.49882        2.93375        1.43395
H          6.10956        2.93168        0.68524
C          3.34034        2.26498       -3.17428
H          2.85987        2.26599       -4.15549
C          5.12977        2.92353       -1.71068
H          6.07161        3.45505       -1.54992
C          4.55757        2.91100       -2.98029
H          5.05454        3.41927       -3.80991
