88
Cat696.ts34.5.log	Energy: -2493829.1080976
C         -0.77045       -4.32853        0.24848
H         -0.63399       -4.93492        1.14827
H         -1.75482       -4.45681       -0.21458
C          0.35608       -4.10603       -0.59600
H          1.33912       -4.48300       -0.28780
H          0.21469       -4.18533       -1.68089
H          0.26366       -2.50984       -0.94629
Co        -0.11192       -2.45255        0.49438
C         -1.83871       -0.07935       -1.37316
C         -3.40169       -2.26495       -0.32990
C         -2.48254       -0.15812        1.46258
C          1.51489        0.14782        1.88917
C          3.17391       -2.06376        0.84100
C          1.85053       -0.13465       -1.01434
P          1.57428       -1.12107        0.55294
P         -1.86508       -1.25557        0.05236
C         -0.16229       -2.64280        2.21211
O         -0.24281       -2.71678        3.36423
H         -2.80773        0.43505       -1.46473
H         -1.11845        0.71002       -1.09957
C         -1.44343       -0.71429       -2.69821
H         -2.21589       -1.43817       -3.01089
H         -0.52875       -1.31591       -2.55972
C         -1.23124        0.31517       -3.79734
H         -2.13972        0.91520       -3.96531
H         -0.42239        1.01520       -3.53204
H         -0.96129       -0.16076       -4.75220
H         -3.14550       -2.84204       -1.23243
H         -3.46701       -2.99235        0.49302
C         -4.69008       -1.52900       -0.49993
C         -5.58382       -1.38967        0.57251
H         -5.36112       -1.88029        1.52386
C         -5.03555       -0.92341       -1.71760
H         -4.37920       -1.03992       -2.58283
C         -6.75775       -0.64943        0.45476
H         -7.45191       -0.54031        1.28981
C         -6.20379       -0.17886       -1.85482
H         -6.47313        0.29308       -2.80142
C         -7.04951       -0.04262       -0.76015
F         -8.16789        0.67004       -0.88405
H         -3.44329       -0.58191        1.78986
H         -1.77291       -0.31327        2.28626
C         -2.64056        1.30672        1.18531
C         -1.66528        2.22228        1.59989
H         -0.81343        1.86970        2.18477
C         -3.75255        1.80726        0.49151
H         -4.54392        1.12438        0.17670
C         -1.76461        3.58152        1.30750
H         -1.00505        4.29376        1.63602
C         -3.87158        3.16102        0.19386
H         -4.73648        3.55044       -0.34627
C         -2.86741        4.03410        0.59632
F         -2.97243        5.33055        0.30610
H          0.77422        0.87268        1.51680
H          1.03278       -0.35193        2.74520
C          2.76658        0.87812        2.35541
H          3.35115        1.23523        1.49512
H          3.41308        0.17180        2.90184
C          2.42568        2.05288        3.25983
H          1.83525        2.80595        2.71364
H          1.83535        1.73170        4.13331
H          3.33261        2.55226        3.63275
H          3.27736       -2.12056        1.93579
H          2.92818       -3.08110        0.50605
C          4.44472       -1.61416        0.18811
C          4.72772       -2.00417       -1.12937
H          4.02545       -2.65432       -1.65880
C          5.38938       -0.81880        0.84892
H          5.21160       -0.51647        1.88194
C          5.88976       -1.59548       -1.77924
H          6.11088       -1.89929       -2.80393
C          6.55910       -0.40335        0.21896
H          7.29597        0.21549        0.73404
C          6.79269       -0.79083       -1.09475
F          7.90822       -0.39499       -1.70500
H          2.46685       -0.76483       -1.67214
H          0.85185       -0.10197       -1.46583
C          2.40748        1.25201       -0.91211
C          1.56757        2.32571       -0.58290
H          0.49641        2.15853       -0.44031
C          3.76540        1.51976       -1.12462
H          4.43702        0.70673       -1.40397
C          2.06560        3.61612       -0.42677
H          1.41275        4.45239       -0.16972
C          4.28068        2.80424       -0.97480
H          5.33970        3.01454       -1.13481
C          3.42428        3.83770       -0.61516
F          3.91222        5.06807       -0.46269
