76
Cat674.ts34.5.log	Energy: -2051295.8933159
C          0.75358       -2.95184       -1.25821
H          0.72683       -3.16857       -2.32940
H          1.74393       -3.06708       -0.80958
C         -0.40996       -3.20174       -0.48346
H         -1.32304       -3.54226       -0.98301
H         -0.29089       -3.64040        0.51424
H         -0.59140       -1.81655        0.44014
Co        -0.14278       -1.20056       -0.83337
C          1.85576       -0.12709        1.77238
O          2.98475       -0.87021       -0.56068
O          1.67567        1.37624       -0.50632
C         -1.69815        1.72761       -1.26140
O         -3.19051       -0.17985       -0.20744
O         -1.35964        0.86678        1.23237
P         -1.58482        0.20138       -0.27707
P          1.56079       -0.21333       -0.04391
C         -0.22271       -0.83278       -2.53462
O         -0.22786       -0.58206       -3.66039
H          2.82078        0.35706        1.99819
H          1.05706        0.51134        2.18386
C          1.80706       -1.51295        2.40375
H          2.55840       -2.16025        1.92111
H          0.83083       -1.97055        2.17407
C          2.03235       -1.48806        3.90670
H          3.02088       -1.07088        4.15807
H          1.27727       -0.86521        4.41359
H          1.97699       -2.49825        4.34035
C          4.26582       -0.27001       -0.41789
H          4.17563        0.67359        0.15078
C          4.78931        0.04875       -1.80505
H          4.08435        0.70815       -2.33045
H          4.88898       -0.87767       -2.39076
H          5.77203        0.54241       -1.75686
C          5.16451       -1.21729        0.35363
H          4.77236       -1.39724        1.36538
H          5.22493       -2.18518       -0.16702
H          6.18163       -0.80702        0.44520
C          2.16806        2.50814        0.20843
H          2.79090        2.17161        1.05543
C          1.00157        3.30965        0.75761
H          0.32200        2.66751        1.33425
H          0.42182        3.75589       -0.06532
H          1.36193        4.12556        1.40246
C          3.03042        3.31833       -0.73934
H          3.89505        2.73673       -1.08839
H          2.44089        3.61475       -1.62010
H          3.40031        4.22921       -0.24490
H         -0.65988        2.09007       -1.33921
H         -1.98464        1.39534       -2.27403
C         -2.64077        2.79989       -0.74084
H         -2.33178        3.07828        0.27983
H         -3.65363        2.37467       -0.65149
C         -2.66677        4.03485       -1.62796
H         -1.66597        4.48948       -1.70872
H         -2.99628        3.78766       -2.64974
H         -3.35064        4.80184       -1.23294
C         -3.66841       -1.52311       -0.28498
H         -2.90453       -2.19254        0.14798
C         -3.87872       -1.90445       -1.73620
H         -2.92305       -1.85275       -2.27801
H         -4.59198       -1.21448       -2.21297
H         -4.27248       -2.92878       -1.82018
C         -4.93329       -1.59675        0.54418
H         -4.73245       -1.32770        1.59150
H         -5.69017       -0.90186        0.14923
H         -5.35102       -2.61427        0.52240
C         -2.22172        0.68161        2.34755
H         -3.26559        0.74293        1.99528
C         -1.95256        1.82335        3.30659
H         -2.11957        2.79156        2.81319
H         -0.91031        1.79288        3.66140
H         -2.61639        1.75943        4.18166
C         -1.99902       -0.67772        2.98744
H         -2.17579       -1.49006        2.26782
H         -0.96493       -0.77001        3.35202
H         -2.68120       -0.82173        3.83908
