94
Cat657.ts34.5.log	Energy: -2824432.7756490
C          0.45966       -3.79352       -1.00333
H          0.28644       -4.04349       -2.05340
H          1.46685       -4.04436       -0.65177
C         -0.62088       -3.89543       -0.08477
H         -1.62714       -4.12080       -0.45035
H         -0.42572       -4.31361        0.90911
H         -0.44862       -2.50430        0.79606
Co        -0.22418       -1.94826       -0.55974
C          3.13751       -1.57713       -1.16831
O          1.95865        0.38242        0.37487
O          2.19302       -1.84662        1.40806
C         -1.08151        0.19598        1.87459
O         -2.08871        0.57546       -0.70097
O         -2.99831       -1.28985        0.87405
P         -1.57191       -0.62725        0.31281
P          1.67850       -1.22339       -0.05177
C         -0.62568       -1.62238       -2.22853
O         -0.86591       -1.38033       -3.32788
H          3.72561       -2.33865       -0.63338
H          2.69277       -2.07237       -2.04127
C          4.01754       -0.42866       -1.56119
C          5.03920       -0.01332       -0.69993
H          5.20351       -0.55635        0.23287
C          3.81572        0.25621       -2.77780
C          2.77689       -0.18656       -3.76666
H          1.77195       -0.24794       -3.32487
H          3.01075       -1.18407       -4.17459
H          2.71923        0.51208       -4.61215
C          5.84044        1.08182       -1.00641
H          6.63070        1.38775       -0.31676
C          4.62635        1.35913       -3.06575
H          4.46506        1.89976       -4.00213
C          5.62566        1.77930       -2.19224
H          6.23988        2.64725       -2.44347
C          1.89651        1.46995       -0.44838
C          0.98386        1.57887       -1.49806
H          0.27861        0.77327       -1.69445
C          2.76712        2.52571       -0.16689
H          3.47844        2.41579        0.65225
C          0.96769        2.72810       -2.28692
H          0.27736        2.82299       -3.12735
C          2.73984        3.67880       -0.94076
H          3.42022        4.50915       -0.74483
C          1.84547        3.76386       -2.00226
F          1.83093        4.86361       -2.75767
C          3.41900       -1.63579        1.97596
C          4.37352       -2.65341        1.92554
H          4.12116       -3.59444        1.43270
C          3.70622       -0.43930        2.63789
H          2.94482        0.33855        2.67880
C          5.62682       -2.46929        2.50544
H          6.38945       -3.24930        2.47546
C          4.95635       -0.25078        3.21862
H          5.20737        0.67555        3.73851
C          5.90542       -1.26454        3.13888
F          7.10268       -1.08039        3.69243
H         -0.90328       -0.65848        2.54795
H         -0.09141        0.62050        1.65637
C         -2.01637        1.19499        2.48888
C         -3.13021        0.74571        3.20679
H         -3.28578       -0.32946        3.31859
C         -1.79534        2.57954        2.34133
C         -0.58349        3.11057        1.63370
H         -0.48976        2.71828        0.61108
H          0.34504        2.83818        2.16248
H         -0.61784        4.20590        1.56402
C         -4.04655        1.64072        3.74863
H         -4.91283        1.26949        4.30126
C         -2.73256        3.46410        2.88508
H         -2.57540        4.53861        2.75976
C         -3.85190        3.00892        3.57648
H         -4.56789        3.72545        3.98583
C         -2.97910        1.60821       -0.52057
C         -2.62525        2.84341       -1.06213
H         -1.66456        2.94305       -1.56793
C         -4.21019        1.44534        0.11650
H         -4.48659        0.47977        0.53556
C         -3.48291        3.93223       -0.93812
H         -3.22134        4.90996       -1.34633
C         -5.06575        2.53450        0.24594
H         -6.02324        2.43765        0.75985
C         -4.69191        3.76619       -0.27558
F         -5.51234        4.80921       -0.13984
C         -3.68068       -2.24555        0.17204
C         -4.16924       -3.34339        0.87994
H         -3.97820       -3.40629        1.95256
C         -3.90406       -2.13601       -1.20217
H         -3.53275       -1.26854       -1.74970
C         -4.87756       -4.34133        0.21733
H         -5.26966       -5.21033        0.74852
C         -4.60178       -3.13967       -1.86976
H         -4.78343       -3.08113       -2.94423
C         -5.07948       -4.23030       -1.15389
F         -5.74927       -5.18866       -1.79306
