72
Cat671.ts34.5.log	Energy: -1862533.8818005
C         -1.12399        0.21195       -2.95087
H         -0.71844       -0.45825       -3.71479
H         -2.21706        0.26495       -2.95530
C         -0.38322        1.36877       -2.60316
H          0.58788        1.55308       -3.07223
H         -0.93574        2.29725       -2.41355
H         -0.33828        1.36905       -0.90308
Co        -0.22809       -0.07966       -1.16175
C         -1.88157        1.21043        1.54929
C         -3.56763        0.12967       -0.52880
C         -2.25211       -1.64389        1.33938
C          1.81219       -1.09814        1.27294
C          3.18176       -0.23187       -1.16837
C          1.90035        1.77821        0.73347
P          1.66452        0.12526       -0.11669
P         -1.88208       -0.13209        0.26482
C          0.12761       -1.69844       -1.64705
O          0.37616       -2.77831       -1.98417
H         -2.72762        1.07372        2.24348
H         -0.96710        1.05340        2.14648
C         -1.88251        2.62906        0.99729
H         -2.82143        2.81906        0.45018
H         -1.08077        2.72514        0.24579
C         -1.69788        3.68241        2.07868
H         -2.49480        3.62645        2.83747
H         -0.73698        3.54776        2.60215
H         -1.70790        4.69965        1.65829
H         -3.37835        0.97073       -1.21981
C         -3.96048       -1.08489       -1.36487
H         -4.80194       -0.83800       -2.03204
H         -3.12443       -1.44094       -1.98346
H         -4.28850       -1.91841       -0.72401
C         -4.69796        0.52706        0.41193
H         -4.50989        1.47930        0.92759
H         -5.63755        0.64168       -0.15346
H         -4.87997       -0.24122        1.18109
H         -3.35053       -1.64898        1.45211
C         -1.83572       -2.93139        0.63889
H         -2.22503       -3.80558        1.18630
H         -2.19434       -2.99183       -0.39674
H         -0.74041       -3.02251        0.60053
C         -1.65303       -1.59121        2.74071
H         -2.04281       -0.75951        3.34312
H         -1.88796       -2.52414        3.27856
H         -0.55684       -1.50682        2.70917
H          1.21730       -0.65482        2.09031
H          1.22179       -1.96138        0.92758
C          3.14510       -1.60257        1.81189
H          3.75960       -0.76829        2.18341
H          3.72110       -2.06806        0.99568
C          2.94652       -2.61921        2.92733
H          2.40521       -2.17644        3.77912
H          2.35756       -3.48234        2.57810
H          3.90784       -3.00020        3.30437
H          3.16869       -1.33835       -1.17740
C          2.98068        0.22475       -2.60921
H          3.80250       -0.14651       -3.24255
H          2.03028       -0.14907       -3.01216
H          2.97419        1.32323       -2.68779
C          4.53726        0.23295       -0.64615
H          4.74644       -0.09796        0.37801
H          5.33910       -0.16243       -1.29134
H          4.62015        1.32982       -0.67148
H          0.89733        1.90143        1.17772
C          2.90981        1.86987        1.87163
H          2.83824        2.86311        2.34535
H          2.71958        1.12427        2.65660
H          3.94615        1.74798        1.52829
C          2.08210        2.90546       -0.27745
H          1.33448        2.85371       -1.08102
H          1.97822        3.88322        0.22001
H          3.07997        2.87991       -0.74109
