76
Cat679.ts34.5.log	Energy: -3299542.4375052
C         -0.71390       -3.22431       -1.13559
H         -0.73962       -4.08467       -0.46026
H         -1.62452       -3.10464       -1.73286
C          0.53258       -2.84264       -1.70355
H          1.45345       -3.34412       -1.38679
H          0.56060       -2.56542       -2.76441
H          0.44909       -1.18341       -1.56729
Co        -0.04359       -1.56224       -0.22711
C         -1.65298        0.94621       -1.95304
C         -3.40395       -0.81549       -0.48330
C         -1.80186        1.03742        0.90444
C          1.55097        0.45247        2.00879
C          3.25513       -1.06521        0.25900
C          1.79584        1.14864       -0.80173
P          1.59271       -0.28730        0.32160
P         -1.67883       -0.16617       -0.48400
C         -0.25273       -2.26994        1.34292
O         -0.43104       -2.71484        2.39615
H         -2.47412        1.68122       -1.91054
H         -0.71271        1.51568       -1.87313
C         -1.67132        0.19027       -3.27366
H         -2.59957       -0.40141       -3.35222
H         -0.84574       -0.54099       -3.27199
C         -1.54222        1.11730       -4.47216
H         -2.38465        1.82557       -4.52274
H         -0.61714        1.71332       -4.41607
H         -1.52475        0.55419       -5.41751
C         -3.64736       -2.07863        0.06535
H         -2.80611       -2.66785        0.43594
C         -4.49150       -0.07378       -0.96198
H         -4.33911        0.92234       -1.38348
C         -4.93934       -2.59298        0.14440
H         -5.12540       -3.57707        0.57745
C         -5.78606       -0.57832       -0.90309
H         -6.63180       -0.00029       -1.27909
C         -6.00271       -1.83938       -0.34657
Cl        -7.61205       -2.47176       -0.26727
C         -1.56310        2.40827        0.76326
H         -1.41200        2.84606       -0.22404
C         -2.01132        0.52884        2.19587
H         -2.19900       -0.53848        2.33602
C         -1.47919        3.24296        1.87817
H         -1.27191        4.30859        1.76443
C         -1.94508        1.34944        3.31417
H         -2.09247        0.94342        4.31610
C         -1.65239        2.70491        3.14969
Cl        -1.48625        3.72230        4.54168
H          0.65267        1.09151        2.02826
H          1.31041       -0.39200        2.67562
C          2.77144        1.20145        2.52278
H          3.07553        1.97905        1.80208
H          3.62543        0.50807        2.58878
C          2.50905        1.83540        3.88152
H          1.67003        2.54887        3.83994
H          2.24638        1.07121        4.63019
H          3.39332        2.37562        4.25192
C          3.35351       -2.42622        0.56798
H          2.43978       -2.98557        0.78706
C          4.42333       -0.35583       -0.04587
H          4.36855        0.70590       -0.29807
C          4.58808       -3.06826        0.59244
H          4.66533       -4.12879        0.83728
C          5.66329       -0.98749       -0.03839
H          6.57461       -0.43772       -0.27929
C          5.73798       -2.34243        0.28476
Cl         7.27737       -3.13309        0.29532
C          1.50667        2.46347       -0.42656
H          1.26340        2.70175        0.60930
C          2.10279        0.89182       -2.14711
H          2.33361       -0.12898       -2.46369
C          1.48822        3.49283       -1.36861
H          1.24623        4.51524       -1.07352
C          2.09924        1.90658       -3.09447
H          2.33248        1.69927       -4.14004
C          1.77286        3.20630       -2.70042
Cl         1.70875        4.46453       -3.88630
