92
Cat694.ts34.5.log	Energy: -2433611.9179087
C          0.86960       -3.28142        0.42993
H          1.22987       -3.90280       -0.39373
H          1.58932       -3.17940        1.24775
C         -0.51854       -3.23805        0.71444
H         -1.23266       -3.74566        0.05913
H         -0.84643       -3.23060        1.76020
H         -0.79172       -1.60423        0.93567
Co         0.10442       -1.53785       -0.23996
C          0.96276        0.63754        2.28212
O          2.93239       -0.64450        1.17134
O          1.69472        1.15946       -0.27892
C         -1.16555        0.78154       -2.34337
O         -2.92124       -0.80763       -1.17727
O         -1.70968        0.88149        0.36385
P         -1.38879       -0.22991       -0.84518
P          1.39061       -0.16886        0.70495
C          0.70389       -1.87890       -1.84323
O          1.12569       -2.08505       -2.89612
H          1.71955        1.39432        2.54140
H          0.01498        1.15888        2.07086
C          0.77808       -0.37001        3.40979
H          1.73956       -0.87238        3.60551
H          0.08295       -1.15943        3.07466
C          0.25045        0.26895        4.68425
H          0.93586        1.04796        5.05431
H         -0.72804        0.74566        4.51360
H          0.12681       -0.47506        5.48596
C          3.72144       -1.44031        0.38798
C          3.81284       -1.25058       -0.98869
H          3.24436       -0.44492       -1.45748
C          4.45654       -2.44616        1.01771
H          4.36983       -2.56920        2.09882
C          4.61697       -2.08948       -1.76984
C          4.66540       -1.89637       -3.25699
H          3.66248       -2.02604       -3.69309
H          5.00296       -0.88013       -3.51507
H          5.34638       -2.61340       -3.73606
C          5.27118       -3.26819        0.24764
H          5.84949       -4.05969        0.73058
C          5.34578       -3.09955       -1.13580
H          5.97975       -3.76084       -1.73176
C          2.37252        2.31310       -0.00692
C          3.50764        2.35831        0.80350
H          3.87545        1.43831        1.25968
C          1.90593        3.47585       -0.62874
H          1.03254        3.41544       -1.28051
C          4.17522        3.57007        1.02268
C          5.38650        3.60088        1.90949
H          5.11740        3.37814        2.95473
H          6.12515        2.84563        1.59968
H          5.87544        4.58473        1.89120
C          2.57130        4.67755       -0.41626
H          2.20975        5.58670       -0.90301
C          3.69520        4.72982        0.40795
H          4.21100        5.67968        0.56881
H         -0.35120        1.47775       -2.07690
H         -0.71723        0.07645       -3.06417
C         -2.34898        1.49496       -2.98618
H         -2.75193        2.25730       -2.30431
H         -3.15983        0.76733       -3.14571
C         -1.95726        2.14634       -4.30366
H         -1.16322        2.89641       -4.15803
H         -1.58010        1.40333       -5.02473
H         -2.81550        2.65659       -4.76648
C         -3.47932       -1.81499       -0.43938
C         -3.56271       -1.73425        0.95018
H         -3.16815       -0.85169        1.45831
C         -3.97190       -2.93035       -1.11723
H         -3.88979       -2.96744       -2.20465
C         -4.12054       -2.78321        1.69023
C         -4.16786       -2.69655        3.18826
H         -3.15147       -2.66120        3.61341
H         -4.68597       -1.78313        3.51957
H         -4.68598       -3.56023        3.62726
C         -4.54051       -3.96739       -0.38555
H         -4.92723       -4.84654       -0.90656
C         -4.60972       -3.90010        1.00659
H         -5.04922       -4.72680        1.57025
C         -2.46377        2.01843        0.24303
C         -3.85238        1.94995        0.15446
H         -4.33885        0.97291        0.14949
C         -1.80634        3.24924        0.25386
H         -0.71857        3.27231        0.33886
C         -4.61141        3.12052        0.04147
C         -6.10580        3.03632       -0.07422
H         -6.40182        2.46959       -0.97116
H         -6.54273        2.51673        0.79298
H         -6.56267        4.03352       -0.13756
C         -2.55877        4.41426        0.14569
H         -2.05479        5.38379        0.14854
C         -3.94781        4.35230        0.03380
H         -4.52789        5.27431       -0.05502
