76
Cat676.ts34.5.log	Energy: -2146252.7695930
C          0.86458       -3.20939        0.46724
H          0.84396       -3.93920       -0.34762
H          1.82379       -3.16502        0.99487
C         -0.33246       -2.97390        1.19964
H         -1.26940       -3.44370        0.88112
H         -0.26866       -2.88788        2.29151
H         -0.30302       -1.32209        1.34752
Co         0.08196       -1.44161       -0.07545
C          1.81350        0.72844        1.94524
C          3.43907       -0.63067       -0.00945
C          1.69866        1.40514       -0.84267
C         -1.77762        0.83915       -1.78598
C         -3.25431       -0.98081       -0.12932
C         -1.72850        1.10193        1.10452
P         -1.61919       -0.14686       -0.23627
P          1.70942       -0.05550        0.27997
C          0.15218       -1.85852       -1.75725
O          0.23617       -2.10861       -2.88455
H          2.60461        1.49592        1.97918
H          0.85289        1.25103        2.08598
C          2.00597       -0.29321        3.05699
H          2.97011       -0.81206        2.91960
H          1.22851       -1.06943        2.96172
C          1.94310        0.33241        4.44115
H          2.72879        1.09364        4.57336
H          0.97274        0.82824        4.60466
H          2.07465       -0.42220        5.23161
C          3.64896       -1.77859       -0.77973
C          4.55140        0.07285        0.47075
C          6.04124       -1.51403       -0.57705
C          5.84264       -0.36833        0.19443
C          4.94211       -2.21450       -1.06795
H          2.78379       -2.32968       -1.15365
H          5.08878       -3.11083       -1.67553
H          7.05503       -1.85828       -0.79582
H          6.70067        0.18937        0.57805
H          4.41421        0.98347        1.05874
C          1.51402        2.72097       -0.40522
C          1.79719        1.16372       -2.22200
C          1.49866        3.51504       -2.69072
C          1.70460        2.20709       -3.13619
C          1.40732        3.76710       -1.32448
H          1.43454        2.94281        0.65976
H          1.25441        4.78797       -0.96458
H          1.41517        4.33425       -3.40882
H          1.78254        1.99767       -4.20574
H          1.93103        0.14096       -2.58369
H         -0.90031        1.50791       -1.80455
H         -1.59707        0.11462       -2.59710
C         -3.06971        1.60316       -2.03475
H         -3.31310        2.23496       -1.16419
H         -3.90344        0.88829       -2.12437
C         -2.98617        2.46589       -3.28521
H         -2.18036        3.21299       -3.20051
H         -2.77111        1.85430       -4.17595
H         -3.92835        3.00462       -3.46836
C         -3.36203       -2.26850       -0.66672
C         -4.39096       -0.37500        0.42052
C         -5.71336       -2.32441       -0.12086
C         -5.61229       -1.04591        0.42730
C         -4.58657       -2.93343       -0.67149
H         -2.46651       -2.74357       -1.07699
H         -4.65820       -3.93683       -1.09820
H         -6.67206       -2.84876       -0.11410
H         -6.49217       -0.56550        0.86243
H         -4.32028        0.62722        0.84987
C         -1.92219        0.64695        2.41820
C         -1.49816        2.46500        0.89555
C         -1.63903        2.88823        3.27285
C         -1.44881        3.35092        1.97391
C         -1.88400        1.53042        3.49149
H         -2.09708       -0.41724        2.59929
H         -2.03853        1.15745        4.50688
H         -1.59901        3.58202        4.11582
H         -1.25859        4.41148        1.79127
H         -1.33282        2.84773       -0.11211
