96
Cat670.ts34.5.log	Energy: -2059742.3936412
C         -0.62109        2.79195        1.09958
H         -0.61442        3.64184        0.41078
H         -1.52375        2.74296        1.71928
C          0.61629        2.36951        1.66602
H          1.54688        2.85558        1.35431
H          0.63454        2.10715        2.73134
H          0.51739        0.72867        1.53172
Co        -0.03612        1.09635        0.20731
C         -1.25669       -1.76820        1.68209
C         -3.10103        0.41795        1.57115
C         -2.46118       -1.05587       -0.81311
C          1.15442       -1.47728       -1.66174
C          2.88866        0.80807       -1.49977
C          2.57770       -0.89232        0.83759
P          1.60754       -0.09061       -0.51620
P         -1.64813       -0.27429        0.65687
C         -0.41221        1.72656       -1.35804
O         -0.70481        2.10080       -2.41430
H         -2.14629       -2.41522        1.76618
H         -0.50567       -2.33970        1.10732
C         -0.71187       -1.44799        3.06719
H         -1.50411       -0.97647        3.67328
H          0.08380       -0.68869        2.97340
C         -0.17256       -2.67057        3.79332
H         -0.94754       -3.44489        3.91082
H          0.66341       -3.12553        3.23650
H          0.19823       -2.41415        4.79750
H         -3.75463       -0.39623        1.93007
H         -2.69005        0.91024        2.46907
C         -3.88799        1.42739        0.74585
H         -3.18187        2.11086        0.24390
H         -4.42623        0.90563       -0.06457
C         -4.88361        2.23538        1.56559
H         -4.34165        2.77345        2.36501
H         -5.57844        1.54987        2.08500
C         -5.68074        3.23411        0.73840
H         -4.97901        3.90902        0.21737
H         -6.22018        2.69338       -0.05959
C         -6.66527        4.05116        1.55911
H         -7.22514        4.76297        0.93362
H         -6.14836        4.63097        2.34081
H         -7.39976        3.40296        2.06413
H         -2.71307       -0.21963       -1.48735
H         -1.66104       -1.60956       -1.33098
C         -3.66985       -1.95556       -0.60341
H         -3.40494       -2.80338        0.05148
H         -4.46573       -1.40415       -0.07369
C         -4.23226       -2.49939       -1.91054
H         -3.43968       -3.05364       -2.44609
H         -4.50017       -1.65412       -2.57035
C         -5.44442       -3.40172       -1.72687
H         -5.17209       -4.24271       -1.06439
H         -6.23169       -2.84345       -1.18961
C         -6.00134       -3.94024       -3.03480
H         -6.87579       -4.58784       -2.86973
H         -5.24629       -4.53255       -3.57655
H         -6.31503       -3.12140       -3.70214
H          0.73969       -2.27206       -1.01578
H          0.29802       -1.09215       -2.23974
C          2.18498       -2.05489       -2.62586
H          3.08607       -2.38072       -2.08401
H          2.51979       -1.26468       -3.31693
C          1.62414       -3.21984       -3.42835
H          1.32106       -4.04957       -2.76939
H          0.73457       -2.91541       -4.00287
H          2.36387       -3.61370       -4.14193
H          3.72681        0.13707       -1.75234
H          2.39387        1.07368       -2.45046
C          3.38852        2.07093       -0.81728
H          2.51457        2.69591       -0.57037
H          3.86036        1.81594        0.14905
C          4.37391        2.86632       -1.66054
H          3.90090        3.12067       -2.62653
H          5.24414        2.23220       -1.91170
C          4.85604        4.14174       -0.98344
H          3.98092        4.76597       -0.73043
H          5.32537        3.88280       -0.01751
C          5.83221        4.94443       -1.82797
H          6.16132        5.85895       -1.31161
H          5.37624        5.24833       -2.78400
H          6.73239        4.35528       -2.06717
H          2.89125       -0.05455        1.48435
H          1.83044       -1.44391        1.43223
C          3.76340       -1.78828        0.51857
H          3.42293       -2.67443       -0.04287
H          4.47467       -1.26308       -0.14240
C          4.49656       -2.25217        1.77088
H          3.78255       -2.76594        2.44072
H          4.84886       -1.36912        2.33462
C          5.67418       -3.17324        1.48461
H          5.31614       -4.05301        0.92075
H          6.38126       -2.65657        0.81146
C          6.40218       -3.63063        2.73820
H          7.24674       -4.29451        2.49930
H          5.72726       -4.18081        3.41356
H          6.80251       -2.77315        3.30271
