66
Cat643.ts34.5.log	Energy: -2094534.3936376
C          0.91384       -3.62874        0.20447
H          0.46595       -4.37584       -0.45621
H          1.99024       -3.49262        0.07191
C          0.31916       -3.39102        1.46425
H         -0.59989       -3.91617        1.74223
H          0.96803       -3.19103        2.32315
H          0.19657       -1.65713        1.56582
Co        -0.10449       -1.87823        0.13206
C          2.00250        0.72434        0.74927
O          2.93436       -1.42073       -0.72053
O          1.37997        0.35925       -1.74552
C         -2.09974        0.64548       -0.81706
O         -2.99985       -0.89371        1.19381
O         -1.14424        0.79206        1.58917
P         -1.55150       -0.43087        0.55894
P          1.52091       -0.62476       -0.41366
C         -0.96621       -2.47347       -1.25345
O         -1.52828       -2.86220       -2.18517
H          1.11987        1.38216        0.77476
H          2.04550        0.23369        1.73216
C          3.25606        1.47846        0.44022
C          3.21629        2.55191       -0.45704
H          2.25712        2.82853       -0.90029
C          4.48897        1.09833        1.00944
C          4.57914       -0.05981        1.96190
H          4.17434       -0.97952        1.51065
H          4.00468        0.12740        2.88453
H          5.62087       -0.25050        2.25429
C          4.37186        3.24524       -0.80453
H          4.31864        4.07777       -1.51013
C          5.63973        1.80998        0.65493
H          6.59732        1.51822        1.09552
C          5.59192        2.87174       -0.24548
H          6.50738        3.40790       -0.50687
C          4.00349       -0.93907       -1.51214
H          3.80216        0.06492       -1.91224
H          4.92079       -0.89484       -0.90725
H          4.16284       -1.63806       -2.34907
C          0.96345       -0.18559       -2.97555
H          1.68851       -0.92212       -3.36182
H         -0.01768       -0.67953       -2.89365
H          0.88880        0.64309       -3.69320
H         -1.19161        1.20344       -1.09686
H         -2.32209       -0.03401       -1.65257
C         -3.24243        1.56533       -0.51054
C         -2.98689        2.80722        0.07975
H         -1.95251        3.08267        0.29751
C         -4.57235        1.18812       -0.78425
C         -4.89228       -0.13386       -1.41993
H         -4.47981       -0.96572       -0.83066
H         -4.46717       -0.21197       -2.43460
H         -5.97803       -0.27834       -1.50490
C         -4.02175        3.68054        0.40078
H         -3.79946        4.64633        0.86081
C         -5.60017        2.07890       -0.45839
H         -6.63346        1.79158       -0.67234
C         -5.33735        3.31368        0.12979
H         -6.16136        3.98841        0.37431
C         -3.22358       -2.19472        1.68414
H         -2.52943       -2.91312        1.21914
H         -3.09078       -2.22790        2.77849
H         -4.25901       -2.47736        1.44501
C         -0.96472        0.52419        2.95544
H         -1.92311        0.26769        3.43643
H         -0.25073       -0.30477        3.11718
H         -0.56275        1.43288        3.42399
