94
Cat659.ts34.5.log	Energy: -3728747.4059031
C         -0.55403       -4.06449       -0.04262
H         -0.16214       -4.58110        0.83752
H         -1.60744       -4.28327       -0.25052
C          0.32044       -3.81658       -1.13105
H          1.38562       -4.04859       -1.03611
H         -0.05690       -3.94470       -2.15178
H         -0.07150       -2.23715       -1.52504
Co        -0.02739       -2.11213       -0.05461
C         -3.47005       -1.85727        0.72004
O         -2.16064        0.40596        0.14597
O         -2.48532       -1.20246       -1.71442
C          0.66049        0.49158       -2.07340
O          1.77161        0.40648        0.49075
O          2.65489       -1.09634       -1.44323
P          1.23834       -0.59342       -0.71051
P         -1.94122       -1.24337       -0.13511
C          0.62016       -2.21951        1.56684
O          1.02724       -2.27753        2.64101
H         -4.32546       -1.51261        0.11984
H         -3.44081       -2.95559        0.66217
C         -3.60160       -1.35378        2.12848
C         -4.26799       -0.14142        2.34420
H         -4.71424        0.37409        1.48980
C         -3.02265       -2.02939        3.22097
C         -2.35038       -3.36024        3.05008
H         -1.73802       -3.61122        3.92657
H         -1.69894       -3.37396        2.16748
H         -3.09529       -4.16418        2.92112
C         -4.34402        0.42720        3.61065
H         -4.85516        1.38191        3.75177
C         -3.10657       -1.44230        4.48840
H         -2.64956       -1.95801        5.33737
C         -3.74886       -0.22312        4.68850
H         -3.78667        0.21646        5.68787
C         -1.71935        1.18027        1.17094
C         -1.05777        0.69392        2.29976
H         -0.86096       -0.36902        2.41275
C         -1.99267        2.54790        1.06917
H         -2.52269        2.91494        0.18884
C         -0.67487        1.56611        3.31316
H         -0.16095        1.18254        4.19544
C         -1.60792        3.42293        2.07823
H         -1.81855        4.49043        1.99780
C         -0.94367        2.92829        3.20003
Cl        -0.43112        4.01924        4.44641
C         -3.69615       -0.74657       -2.15412
C         -4.65275       -1.67399       -2.57115
H         -4.42091       -2.73877       -2.50445
C         -3.96421        0.62115       -2.24521
H         -3.20519        1.33363       -1.92457
C         -5.87839       -1.24209       -3.06831
H         -6.63159       -1.96010       -3.39626
C         -5.18970        1.05693       -2.73958
H         -5.41025        2.12284       -2.81597
C         -6.14368        0.12455       -3.14632
Cl        -7.66886        0.66910       -3.75938
H          0.38273       -0.23901       -2.85115
H         -0.28942        0.90127       -1.70161
C          1.57066        1.55239       -2.62449
C          2.66766        1.17984       -3.41051
H          2.83266        0.12105       -3.61702
C          1.33444        2.91911       -2.37140
C          0.12761        3.37975       -1.60980
H          0.06925        2.92736       -0.61036
H         -0.80392        3.12095       -2.14131
H          0.14270        4.46967       -1.47442
C          3.55957        2.12813       -3.89958
H          4.41387        1.81344       -4.50359
C          2.24833        3.85773       -2.86165
H          2.08380        4.91610       -2.64352
C          3.35750        3.47537       -3.60995
H          4.05740        4.23189       -3.97230
C          2.51917        1.55647        0.41239
C          2.04283        2.66855        1.10254
H          1.11393        2.58404        1.66624
C          3.72833        1.61736       -0.28109
H          4.10416        0.74107       -0.80721
C          2.74370        3.86913        1.05527
H          2.36976        4.74715        1.58412
C          4.42561        2.81864       -0.33590
H          5.35474        2.89024       -0.90225
C          3.92300        3.94286        0.31749
Cl         4.77011        5.45086        0.19680
C          3.43059       -2.10052       -0.93924
C          3.92232       -3.05039       -1.83537
H          3.65498       -2.96882       -2.89045
C          3.75572       -2.17979        0.41630
H          3.38444       -1.42767        1.11363
C          4.73262       -4.08518       -1.38099
H          5.12196       -4.83310       -2.07340
C          4.55677       -3.22212        0.87497
H          4.80866       -3.29763        1.93374
C          5.04131       -4.17094       -0.02305
Cl         6.03910       -5.46653        0.54883
