110
Cat663.ts34.5.log	Energy: -2300205.5303621
C         -0.96205        0.26555       -3.29346
H         -0.80780       -0.52014       -4.03829
H         -2.00732        0.59508       -3.23220
C          0.06392        1.24020       -3.10428
H          1.01115        1.12963       -3.64302
H         -0.23002        2.29316       -3.00774
H          0.14897        1.36042       -1.47786
Co         0.00450       -0.11815       -1.58548
C         -2.60651        1.60613       -0.33056
C         -3.08927       -1.24680       -0.99946
C         -1.73541       -0.51771        1.42615
C          2.50529       -1.56364        0.24117
C          3.15798        0.86599       -1.34475
C          1.71945        1.04049        1.15210
P          1.79075        0.04414       -0.40154
P         -1.79139       -0.08169       -0.36861
C          0.28413       -1.76346       -2.04026
O          0.45047       -2.87680       -2.31347
H         -1.93321        2.19818        0.31032
H         -2.48020        2.00128       -1.34836
C         -4.02068        1.72982        0.14108
C         -4.29211        1.75664        1.51552
H         -3.45478        1.75408        2.21840
C         -5.09926        1.78818       -0.76802
C         -4.87673        1.83316       -2.25256
H         -4.34771        0.94155       -2.62149
H         -4.27096        2.70607       -2.54508
H         -5.83262        1.89509       -2.79012
C         -5.59557        1.77816        2.00243
H         -5.77730        1.78782        3.07969
C         -6.40372        1.81197       -0.26283
H         -7.23951        1.84965       -0.96720
C         -6.66122        1.79153        1.10609
H         -7.69140        1.80414        1.46941
H         -2.53260       -2.16226       -1.26313
H         -3.40460       -0.82659       -1.96629
C         -4.28441       -1.59459       -0.12216
H         -3.92669       -2.09977        0.79057
H         -4.79799       -0.68285        0.22006
C         -5.31581       -2.50753       -0.79339
H         -4.78489       -3.40897       -1.15447
C         -6.35942       -2.94928        0.22660
H         -5.89536       -3.47105        1.07832
H         -7.10144       -3.62847       -0.22144
H         -6.90199       -2.07638        0.62681
C         -5.98625       -1.84346       -1.99146
H         -6.73575       -2.51007       -2.44557
H         -5.26547       -1.57880       -2.77954
H         -6.50124       -0.91887       -1.68164
H         -2.74297       -0.45451        1.86833
H         -1.12167        0.25633        1.91378
C         -1.14189       -1.90269        1.63661
H         -1.76614       -2.64656        1.11296
H         -0.16158       -1.94987        1.13334
C         -0.99362       -2.34492        3.09418
H         -1.99392       -2.28421        3.56311
C         -0.53160       -3.79645        3.15632
H         -1.22555       -4.46314        2.62137
H         -0.45409       -4.15216        4.19538
H          0.46167       -3.91033        2.69035
C         -0.05273       -1.44578        3.88821
H          0.03093       -1.78285        4.93284
H         -0.39421       -0.40023        3.90757
H          0.96278       -1.46187        3.45662
H          1.85652       -1.82113        1.09258
H          2.29992       -2.31259       -0.53404
C          3.94198       -1.58613        0.65694
C          4.30693       -1.15380        1.93832
H          3.52183       -0.86200        2.64098
C          4.94867       -2.01544       -0.23438
C          4.61396       -2.56882       -1.59037
H          4.00395       -1.87803       -2.19068
H          4.03465       -3.50323       -1.50982
H          5.52676       -2.78989       -2.16000
C          5.64042       -1.08124        2.33046
H          5.89834       -0.73036        3.33237
C          6.28392       -1.93864        0.17591
H          7.06612       -2.26424       -0.51556
C          6.63786       -1.46330        1.43694
H          7.69022       -1.40904        1.72515
H          2.65244        1.65119       -1.93028
H          3.47537        0.11996       -2.08945
C          4.34663        1.46013       -0.60077
H          3.98743        2.24964        0.08029
H          4.82825        0.70452        0.03814
C          5.41349        2.07218       -1.51457
H          4.91545        2.81893       -2.16236
C          6.46009        2.79703       -0.67565
H          6.00433        3.58089       -0.05041
H          7.22650        3.27239       -1.30742
H          6.97219        2.08966       -0.00208
C          6.07403        1.03247       -2.41382
H          6.84926        1.49210       -3.04627
H          5.35345        0.54162       -3.08506
H          6.55447        0.24766       -1.80658
H          2.72202        1.06863        1.60911
H          1.07076        0.47708        1.84045
C          1.19090        2.44930        0.93623
H          1.82588        2.96806        0.19723
H          0.19256        2.38840        0.47015
C          1.10787        3.31533        2.19539
H          2.11701        3.34524        2.64821
C          0.71552        4.74130        1.82587
H          1.42451        5.18104        1.10724
H          0.68427        5.39418        2.71179
H         -0.28472        4.76288        1.36142
C          0.14709        2.74273        3.23144
H          0.09674        3.38458        4.12434
H          0.44635        1.73855        3.56612
H         -0.87420        2.67076        2.81933
