90
Cat645.ts34.5.log	Energy: -2291756.9171246
C         -1.07656       -2.95396       -1.43161
H         -0.85972       -3.91060       -0.94798
H         -2.14595       -2.78980       -1.60468
C         -0.14150       -2.44441       -2.37875
H          0.81668       -2.95402       -2.52232
H         -0.52430       -2.00463       -3.30796
H         -0.08398       -0.85125       -1.96270
Co        -0.03254       -1.44626       -0.60771
C         -2.87065        0.29571       -1.29509
O         -2.71461       -0.62732        1.15588
O         -1.05586        1.25851        0.57766
C          2.12087        0.40848        1.14247
O          3.06347       -1.19206       -0.89662
O          1.98363        0.99933       -1.46646
P          1.73658       -0.31979       -0.50902
P         -1.61942       -0.19316       -0.00073
C          0.49756       -2.44974        0.70790
O          0.83830       -3.10188        1.59802
H         -2.39776        1.13206       -1.83387
H         -2.86055       -0.55639       -1.99290
C         -4.27424        0.63507       -0.88928
C         -4.66040        1.97054       -0.73431
H         -3.93489        2.75933       -0.94364
C         -5.23078       -0.37918       -0.66908
C         -4.89810       -1.82404       -0.89351
H         -4.03052       -2.12825       -0.29271
H         -4.65218       -2.01986       -1.95088
H         -5.74480       -2.47130       -0.62678
C         -5.94585        2.31964       -0.32841
H         -6.21580        3.37223       -0.21452
C         -6.51704       -0.01422       -0.26057
H         -7.25523       -0.80203       -0.08601
C         -6.87947        1.31855       -0.07924
H         -7.89249        1.57187        0.24224
C         -2.34914       -1.39449        2.30525
H         -1.27531       -1.23452        2.51470
C         -2.58789       -2.86888        2.04331
H         -2.06277       -3.18647        1.13357
H         -3.66363       -3.06491        1.91597
H         -2.21933       -3.47537        2.88373
C         -3.17794       -0.87978        3.46469
H         -2.98882        0.18613        3.65090
H         -4.24840       -0.99912        3.23864
H         -2.94904       -1.44126        4.38268
C         -1.81867        2.24490        1.27615
H         -2.87227        1.92144        1.31602
C         -1.70584        3.55886        0.52716
H         -2.00073        3.44393       -0.52519
H         -0.66748        3.92257        0.54657
H         -2.34908        4.32567        0.98437
C         -1.27197        2.35473        2.68688
H         -1.30769        1.38288        3.19707
H         -0.22284        2.68878        2.66634
H         -1.85320        3.07878        3.27775
H          1.37959        1.21814        1.22930
H          1.83399       -0.35467        1.87891
C          3.52263        0.88407        1.34511
C          3.90153        2.15961        0.91109
H          3.14950        2.80354        0.45127
C          4.48668        0.04070        1.93600
C          4.12253       -1.33651        2.41076
H          3.67548       -1.93343        1.60121
H          3.38451       -1.30314        3.22916
H          5.00665       -1.87210        2.78328
C          5.21243        2.60857        1.04100
H          5.48587        3.60695        0.69132
C          5.79789        0.51091        2.06695
H          6.54721       -0.13978        2.52667
C          6.16783        1.77780        1.62170
H          7.20081        2.11602        1.73319
C          4.24635       -0.71612       -1.55990
H          4.42175        0.33249       -1.27040
C          4.04504       -0.80584       -3.06060
H          3.19720       -0.18478       -3.37437
H          3.84689       -1.84832       -3.35489
H          4.94503       -0.46012       -3.59166
C          5.39962       -1.57510       -1.08710
H          5.55232       -1.46960       -0.00599
H          5.20336       -2.63374       -1.31634
H          6.32800       -1.27386       -1.59480
C          0.94707        1.77103       -2.07030
H         -0.00356        1.53589       -1.56678
C          0.83780        1.41885       -3.54070
H          0.63071        0.34665       -3.66929
H          1.77466        1.65623       -4.06800
H          0.02208        1.98549       -4.01527
C          1.27060        3.23273       -1.83950
H          1.30389        3.45511       -0.76374
H          2.24907        3.48374       -2.27681
H          0.50612        3.87718       -2.29866
