88
Cat680.ts34.5.log	Energy: -2244861.5869048
C          0.75273       -3.23630        0.87484
H          0.76720       -4.04917        0.14256
H          1.67644       -3.15294        1.45830
C         -0.48381       -2.90331        1.49698
H         -1.40918       -3.38835        1.16723
H         -0.48885       -2.70495        2.57611
H         -0.41690       -1.24831        1.47505
Co         0.05038       -1.52425        0.09950
C          1.69028        0.85384        1.96384
C          3.41350       -0.76638        0.31529
C          1.77183        1.17614       -0.88309
C         -1.61234        0.63131       -1.94368
C         -3.25900       -1.00563       -0.24782
C         -1.77571        1.14873        0.90527
P         -1.60245       -0.21622       -0.30679
P          1.68535       -0.13367        0.40693
C          0.21296       -2.11728       -1.52134
O          0.36034       -2.48631       -2.60916
H          2.49658        1.60632        1.95706
H          0.73627        1.40615        1.96409
C          1.77413       -0.01653        3.20923
H          2.73298       -0.56267        3.21586
H          0.98706       -0.78712        3.15445
C          1.62160        0.78585        4.49167
H          2.41166        1.54854        4.58413
H          0.65208        1.30950        4.51255
H          1.67618        0.14050        5.38176
C          3.65535       -1.99266       -0.30843
H          2.80925       -2.57020       -0.68643
C          4.51075       -0.03773        0.79310
H          4.36071        0.93544        1.26689
C          4.95496       -2.47566       -0.45355
H          5.11837       -3.43478       -0.95307
C          5.80398       -0.52887        0.65823
H          6.64470        0.05859        1.03901
C          6.05138       -1.75877        0.03259
C          7.44933       -2.29029       -0.08942
H          7.80274       -2.69497        0.87363
H          7.50989       -3.09997       -0.83023
H          8.15549       -1.50007       -0.38627
C          1.55404        2.53321       -0.63433
H          1.41134        2.89295        0.38548
C          1.95805        0.77105       -2.21472
H          2.12479       -0.28529       -2.44050
C          1.48743        3.45013       -1.68619
H          1.30264        4.50554       -1.46478
C          1.90486        1.68821       -3.25445
H          2.04745        1.34194       -4.28214
C          1.65094        3.04745       -3.01287
C          1.54902        4.02189       -4.14928
H          2.43050        3.96475       -4.80679
H          0.66679        3.80869       -4.77511
H          1.46099        5.05623       -3.78817
H         -0.72204        1.28244       -1.94562
H         -1.38280       -0.16327       -2.67255
C         -2.86047        1.39347       -2.36324
H         -3.16664        2.09268       -1.56719
H         -3.69873        0.68704       -2.47535
C         -2.64523        2.15964       -3.66026
H         -1.83738        2.90204       -3.55291
H         -2.35786        1.48118       -4.47938
H         -3.55572        2.69424       -3.97146
C         -3.36725       -2.33836       -0.65826
H         -2.46025       -2.87426       -0.95186
C         -4.42052       -0.33046        0.14538
H         -4.36087        0.70992        0.47448
C         -4.60545       -2.97331       -0.69115
H         -4.66786       -4.01350       -1.02338
C         -5.65417       -0.97471        0.12263
H         -6.55021       -0.42988        0.43386
C         -5.77054       -2.30616       -0.29541
C         -7.09784       -3.00603       -0.28603
H         -7.27831       -3.49230        0.68747
H         -7.92620       -2.30339       -0.45774
H         -7.14587       -3.79005       -1.05556
C         -1.50101        2.48372        0.60312
H         -1.27097        2.78186       -0.42039
C         -2.05702        0.81842        2.24069
H         -2.27469       -0.22041        2.50413
C         -1.48271        3.45387        1.60757
H         -1.25208        4.49018        1.34472
C         -2.04871        1.78775        3.23379
H         -2.27006        1.50135        4.26601
C         -1.74693        3.12658        2.93858
C         -1.69897        4.15737        4.02734
H         -2.62751        4.15871        4.61921
H         -0.87154        3.95333        4.72656
H         -1.55268        5.16793        3.62133
