106
Cat664.ts34.5.log	Energy: -2673976.0788727
C          0.83801       -2.63325       -2.18223
H          0.47389       -2.62254       -3.21375
H          1.91661       -2.81063       -2.09722
C         -0.02009       -3.10461       -1.15772
H         -1.05123       -3.39070       -1.38828
H          0.40794       -3.70935       -0.34911
H          0.08577       -1.92446        0.05163
Co         0.09282       -1.06474       -1.15192
C          2.76126       -1.53831        0.80151
C          3.20193        0.35758       -1.36293
C          1.60093        1.16240        0.89560
C         -2.02268        1.46511       -0.41630
C         -3.25758       -1.11580       -0.87279
C         -1.78954       -0.64325        1.60311
P         -1.71326       -0.36694       -0.20792
P          1.87427       -0.25307       -0.23908
C         -0.13902       -0.07473       -2.54968
O         -0.28573        0.65333       -3.43988
H          2.13632       -1.64792        1.70158
H          2.59690       -2.45835        0.22146
C          4.21178       -1.39329        1.15373
C          4.59017       -0.78865        2.35900
H          3.81597       -0.42813        3.03776
C          5.22117       -1.88045        0.29497
C          4.89716       -2.62256       -0.96923
H          4.34203       -1.99611       -1.68156
H          4.27909       -3.51267       -0.76619
H          5.81502       -2.96262       -1.46766
C          5.92529       -0.62565        2.71161
H          6.18482       -0.15057        3.66093
C          6.56133       -1.69672        0.65732
H          7.33992       -2.06968       -0.01388
C          6.92221       -1.07209        1.84741
H          7.97727       -0.95017        2.10477
C          3.13657       -0.00693       -2.70799
H          2.28443       -0.60449       -3.03495
C          4.28967        1.14980       -0.93624
O          4.29708        1.52938        0.35047
C          5.36327        2.27942        0.85504
H          6.31932        1.73720        0.76407
H          5.14874        2.43990        1.91884
H          5.44569        3.25935        0.35243
C          4.12509        0.36091       -3.61987
H          4.04779        0.05522       -4.66508
C          5.28802        1.51791       -1.84591
H          6.13652        2.11765       -1.51648
C          5.20400        1.11880       -3.17855
H          5.99325        1.41414       -3.87465
C          1.61780        1.07723        2.28479
H          1.84281        0.12468        2.76382
C          1.23582        2.39627        0.31126
O          1.18865        2.40533       -1.03257
C          0.78638        3.55437       -1.72207
H         -0.22398        3.87906       -1.41722
H          0.76664        3.27975       -2.78367
H          1.49376        4.38814       -1.57019
C          1.32714        2.18035        3.09100
H          1.35386        2.08072        4.17806
C          0.93286        3.50241        1.10799
H          0.65598        4.45263        0.65042
C          0.98834        3.39118        2.49999
H          0.75731        4.26307        3.11666
H         -1.28672        1.95387        0.23795
H         -1.67593        1.65708       -1.43976
C         -3.39065        2.03836       -0.19857
C         -3.70992        2.59794        1.04808
H         -2.95183        2.60235        1.83290
C         -4.36257        2.06151       -1.22104
C         -4.12361        1.53377       -2.60811
H         -4.62766        0.56525       -2.75115
H         -3.06307        1.37597       -2.83901
H         -4.53230        2.22926       -3.35692
C         -4.95957        3.14418        1.31090
H         -5.17293        3.57393        2.29270
C         -5.62045        2.61398       -0.93692
H         -6.37202        2.63276       -1.73168
C         -5.92964        3.14580        0.30946
H         -6.91829        3.57369        0.49380
C         -3.18053       -1.74288       -2.11505
H         -2.19920       -1.78960       -2.59485
C         -4.50751       -1.05705       -0.22132
O         -4.52874       -0.48767        0.99240
C         -5.74279       -0.31323        1.66459
H         -6.44140        0.30781        1.07965
H         -5.50349        0.20950        2.59861
H         -6.21918       -1.28074        1.90305
C         -4.30857       -2.27602       -2.73884
H         -4.22258       -2.75172       -3.71777
C         -5.64429       -1.58536       -0.84333
H         -6.61643       -1.52736       -0.35348
C         -5.53971       -2.18696       -2.09784
H         -6.43804       -2.59260       -2.57030
C         -1.50026        0.35530        2.52760
H         -1.25546        1.35904        2.18214
C         -2.03842       -1.94572        2.08682
O         -2.27039       -2.88433        1.14872
C         -2.57852       -4.19285        1.52906
H         -1.75038       -4.66394        2.08753
H         -2.74813       -4.75380        0.60135
H         -3.49394       -4.23384        2.14499
C         -1.48653        0.10048        3.90088
H         -1.25285        0.90755        4.59802
C         -2.03400       -2.20871        3.45756
H         -2.23816       -3.21352        3.82821
C         -1.76164       -1.17985        4.36189
H         -1.75927       -1.39509        5.43322
