72
Cat698.ts34.5.log	Energy: -1862544.0302225
C         -2.72149       -2.05732       -1.32683
H         -2.73687       -3.14527       -1.21510
H         -3.69143       -1.58872       -1.12681
C         -1.87844       -1.49325       -2.32673
H         -1.22752       -2.15270       -2.91221
H         -2.27350       -0.66816       -2.93291
H         -1.11488       -0.25964       -1.56750
Co        -1.11079       -1.24280       -0.45236
C         -2.12488        2.01339        0.00156
C         -3.75667        0.01027        1.23926
C         -1.23130        0.76251        2.39482
C          1.88897       -0.07056        0.64463
C          1.98270       -2.62660       -0.69922
C          1.51540       -0.23981       -2.26793
P          1.02437       -1.04478       -0.67217
P         -1.99275        0.32806        0.75997
C         -0.98783       -2.59673        0.60811
O         -0.90212       -3.49746        1.33169
H         -2.67792        2.70235        0.66248
H         -2.73739        1.86826       -0.90380
C         -0.76648        2.59424       -0.36014
H         -0.22245        2.84736        0.56606
H         -0.17422        1.80509       -0.85547
C         -0.78128        3.82755       -1.26589
H         -1.42001        4.59427       -0.78807
C          0.62821        4.39684       -1.38754
H          1.04415        4.66027       -0.40224
H          0.64844        5.30126       -2.01504
H          1.30760        3.65868       -1.84715
C         -1.35941        3.52060       -2.64306
H         -1.34861        4.41325       -3.28732
H         -2.39978        3.16700       -2.58921
H         -0.76797        2.73739       -3.14741
H         -3.77467       -1.02430        1.61949
C         -4.43511        0.96145        2.21120
H         -4.42495        2.00178        1.85120
H         -3.95565        0.94853        3.20178
H         -4.30720       -0.02693        0.28460
H         -5.48979        0.68051        2.35920
H         -1.79130        1.60305        2.83904
C         -1.14503       -0.40665        3.36191
H         -0.56837       -1.24095        2.93621
H         -2.14093       -0.80295        3.61453
H         -0.22299        1.14550        2.17427
H         -0.66163       -0.10656        4.30462
H          1.35267       -0.33119        1.57145
H          1.61792        0.97664        0.43418
C          3.38657       -0.22060        0.87370
H          3.60120       -1.25632        1.18427
H          3.94908       -0.06435       -0.06135
C          3.94330        0.72998        1.93943
H          3.33562        0.59372        2.85427
C          5.38514        0.36649        2.27527
H          5.46798       -0.67545        2.62165
H          5.79210        1.01754        3.06447
H          6.03243        0.47506        1.38880
C          3.83945        2.19305        1.52005
H          4.24465        2.85843        2.29787
H          2.80035        2.50375        1.33271
H          4.41369        2.37517        0.59565
H          1.84105       -3.07328        0.29940
C          1.49350       -3.58358       -1.77445
H          1.69308       -3.19542       -2.78589
H          0.40773       -3.74004       -1.68530
H          3.06006       -2.42356       -0.80889
H          1.99017       -4.56229       -1.69324
H          1.01786        0.74383       -2.25942
C          2.98349       -0.09459       -2.63149
H          3.52222       -1.05328       -2.58107
H          3.50193        0.61584       -1.97164
H          0.98058       -0.82036       -3.03742
H          3.08896        0.28337       -3.66066
