74
Cat640.ts34.5.log	Energy: -2004401.1457888
C          1.09882        3.15177       -0.09273
H          0.76002        3.92153        0.60617
H          2.18496        3.00051       -0.07122
C          0.42798        3.01194       -1.34035
H         -0.45464        3.62224       -1.54881
H          1.03131        2.84925       -2.24205
H          0.27509        1.35498       -1.46718
Co        -0.06754        1.52027       -0.03480
C          2.66788       -0.19590       -0.88969
C          2.64237        0.91195        1.89116
C          1.21511       -1.47585        1.26472
C         -2.43284       -0.83052        0.65382
C         -3.15582        1.00690       -1.47199
C         -1.22648       -1.06694       -1.92142
P         -1.66197        0.23794       -0.68214
P          1.55671        0.20318        0.56398
C         -0.93401        2.06619        1.36605
O         -1.51891        2.38329        2.31459
H          2.00497       -0.78973       -1.54045
H          2.79709        0.76863       -1.40132
C          3.97420       -0.90050       -0.69559
C          3.99844       -2.29516       -0.56893
H          3.06009       -2.84925       -0.65711
C          5.19288       -0.19012       -0.63373
C          5.24038        1.30156       -0.80102
H          4.65718        1.82165       -0.02550
H          4.82749        1.61614       -1.77317
H          6.27351        1.67023       -0.74321
C          5.18417       -2.98831       -0.34211
H          5.17131       -4.07617       -0.24160
C          6.37662       -0.90089       -0.41056
H          7.31952       -0.34925       -0.35974
C          6.38223       -2.28512       -0.25392
H          7.32268       -2.81194       -0.07648
H          1.91934        1.26012        2.64821
C          3.72369        0.05693        2.53514
H          4.48040       -0.27812        1.81402
H          3.30826       -0.84189        3.01420
H          3.06641        1.83723        1.47287
H          4.24111        0.62987        3.32098
H          2.15657       -2.03907        1.36742
C          0.48142       -1.40963        2.59684
H         -0.37629       -0.72365        2.54982
H          1.13959       -1.04957        3.40112
H          0.61018       -2.01114        0.51353
H          0.10860       -2.40081        2.89744
H         -1.74951       -1.68643        0.76078
H         -2.35215       -0.24972        1.58118
C         -3.83789       -1.29771        0.42998
C         -4.08833       -2.44189       -0.33799
H         -3.24220       -3.01964       -0.71951
C         -4.93035       -0.58708        0.97464
C         -4.72648        0.59510        1.88027
H         -4.08913        1.37555        1.43755
H         -4.23256        0.29772        2.82001
H         -5.68778        1.05682        2.14364
C         -5.38518       -2.86877       -0.61035
H         -5.55093       -3.76463       -1.21337
C         -6.22698       -1.02844        0.68977
H         -7.07334       -0.47675        1.10830
C         -6.46315       -2.15027       -0.10111
H         -7.48782       -2.46888       -0.30629
H         -3.85482        1.23904       -0.65538
C         -2.88329        2.26775       -2.27362
H         -2.14158        2.11083       -3.07054
H         -2.49548        3.06022       -1.61914
H         -3.65463        0.23358       -2.07966
H         -3.80961        2.63316       -2.74329
H         -2.11227       -1.70725       -2.06046
C         -0.73620       -0.54955       -3.26262
H          0.11967        0.13240       -3.14095
H         -1.52549       -0.00228       -3.79936
H         -0.45090       -1.68984       -1.44472
H         -0.41571       -1.38072       -3.90934
