122
Cat654.ts34.5.log	Energy: -2961227.0746450
C         -0.40470       -2.39428       -2.39913
H          0.05938       -3.38246       -2.33362
H         -1.48052       -2.42166       -2.60243
C          0.37421       -1.30315       -2.85258
H          1.43823       -1.44409       -3.06641
H         -0.08972       -0.55967       -3.50480
H          0.12194       -0.04394       -1.73079
Co         0.11152       -1.22038       -0.83968
C         -1.96433        1.44765       -0.32281
C         -3.36464       -0.93420       -0.95224
C         -2.02229       -0.77804        1.68199
C          2.68623       -0.94329        1.43436
C          3.36841       -0.22494       -1.16359
C          1.47239        1.55200        0.27426
P          1.85557       -0.21858       -0.07373
P         -1.78867       -0.38833       -0.11240
C          0.42186       -2.65481        0.06518
O          0.70779       -3.62730        0.62900
H         -1.26634        1.90936        0.38833
H         -1.52808        1.59643       -1.31713
C         -3.31393        2.10257       -0.24919
C         -4.32995        1.61401        0.57955
H         -4.15233        0.71141        1.16566
C         -3.57415        3.24969       -1.03011
C         -2.53004        3.81424       -1.94998
H         -2.25301        3.08852       -2.73292
H         -1.60386        4.05959       -1.40814
H         -2.89236        4.72482       -2.44765
C         -5.57179        2.23852        0.65804
H         -6.34480        1.82672        1.31218
C         -4.82665        3.86756       -0.94105
H         -5.01960        4.75720       -1.54790
C         -5.82475        3.37533       -0.10446
H         -6.79571        3.87452       -0.05567
C         -4.48455       -1.56134       -0.36685
O         -4.54091       -1.59756        0.97805
C         -5.55086       -2.30597        1.62888
H         -5.31679       -2.25648        2.70074
H         -6.54702       -1.86109        1.45543
H         -5.57720       -3.36527        1.31749
C         -3.42592       -0.71575       -2.34433
O         -2.42391        0.02509       -2.86958
C         -2.44128        0.34330       -4.23001
H         -1.56834        0.98458       -4.41103
H         -3.35468        0.89772       -4.50716
H         -2.35595       -0.55615       -4.86435
C         -4.46885       -1.21178       -3.13433
H         -4.47953       -1.05071       -4.21107
C         -5.52883       -2.07429       -1.14887
H         -6.37427       -2.57530       -0.67941
C         -5.50380       -1.90981       -2.52639
H         -6.31917       -2.30821       -3.13461
C         -2.02283        0.13683        2.74749
O         -1.95508        1.45927        2.45726
C         -2.60530        2.38177        3.28517
H         -2.65621        3.32291        2.72175
H         -3.63032        2.05478        3.52606
H         -2.05820        2.56362        4.22842
C         -2.09312       -2.15083        2.01552
O         -2.17078       -2.98725        0.96781
C         -2.24400       -4.36782        1.17063
H         -2.29885       -4.82126        0.17308
H         -3.14557       -4.64651        1.74475
H         -1.34546       -4.74789        1.68380
C         -2.13037       -2.59103        3.33975
H         -2.17070       -3.65481        3.57043
C         -2.08797       -0.29472        4.08085
H         -2.09420        0.43634        4.88955
C         -2.12927       -1.65119        4.36731
H         -2.16445       -1.98572        5.40686
H          1.99045       -0.80680        2.27025
H          2.69639       -2.01417        1.19821
C          4.07336       -0.45626        1.74994
C          4.29107        0.86462        2.16183
H          3.43761        1.53317        2.25509
C          5.18839       -1.31470        1.62435
C          5.03606       -2.76105        1.24665
H          4.48469       -2.88311        0.30488
H          4.47671       -3.31950        2.01518
H          6.01874       -3.23974        1.13507
C          5.56802        1.35008        2.42656
H          5.69989        2.38756        2.74472
C          6.46730       -0.80895        1.88439
H          7.32679       -1.47657        1.77641
C          6.66854        0.51058        2.27865
H          7.67943        0.87621        2.47592
C          4.26026        0.84944       -1.35869
O          4.02022        1.97574       -0.66772
C          4.93568        3.02859       -0.68974
H          4.53306        3.79703       -0.01689
H          5.92674        2.71094       -0.32258
H          5.04453        3.46358       -1.69948
C          3.69614       -1.44658       -1.78641
O          2.94558       -2.51039       -1.43380
C          3.08744       -3.73566       -2.09282
H          2.34030       -4.40517       -1.64844
H          4.09157       -4.16978       -1.94128
H          2.89349       -3.63900       -3.17511
C          4.77532       -1.56282       -2.67106
H          4.99373       -2.51159       -3.15922
C          5.35428        0.73837       -2.22755
H          6.02852        1.58061       -2.37614
C          5.58920       -0.45968       -2.88959
H          6.44030       -0.54227       -3.56975
C          1.33357        2.43054       -0.81915
O          1.56269        1.88637       -2.02882
C          1.54465        2.68498       -3.17275
H          1.79221        2.02527       -4.01419
H          0.55002        3.13365       -3.34542
H          2.29527        3.49316       -3.11895
C          1.10898        2.04137        1.54069
O          1.13223        1.16190        2.56368
C          0.99892        1.61046        3.88103
H          1.10430        0.72529        4.52076
H          0.00979        2.05803        4.06102
H          1.78316        2.34293        4.14143
C          0.74046        3.38187        1.72555
H          0.47738        3.74884        2.71637
C          0.97861        3.77037       -0.64720
H          0.91392        4.44390       -1.50081
C          0.69047        4.23599        0.63286
H          0.40372        5.28034        0.77624
