108
Cat637.ts34.5.log	Energy: -2534620.7417082
C         -1.70979       -3.30128       -1.62537
H         -2.65184       -3.38495       -1.06825
H         -1.81824       -3.54621       -2.68620
C         -0.49843       -3.67128       -0.95818
H         -0.56528       -4.14341        0.02989
H          0.32339       -4.09366       -1.54755
H         -0.23929       -2.36342       -0.03602
Co        -0.59540       -1.67748       -1.30833
C          1.29652       -0.05079        0.97247
C          2.65821       -1.91300       -0.91845
C          1.71707        0.75978       -1.85832
C         -1.82770        1.32855       -0.24307
C         -3.66888       -0.40705       -1.74460
C         -3.07872       -0.94101        1.05576
P         -2.22292       -0.48275       -0.54133
P          1.24241       -0.69656       -0.77892
C         -0.45271       -1.30836       -2.99977
O         -0.36328       -1.03593       -4.12057
H          0.49680       -0.61785        1.46618
H          0.95904        0.99388        0.91170
C          2.54853       -0.13943        1.78761
C          3.41232        0.95344        1.93048
H          3.18067        1.89221        1.42571
C          2.85900       -1.32532        2.46892
H          2.17443       -2.17433        2.39833
C          4.56079        0.85661        2.71329
H          5.21750        1.72488        2.81127
C          4.00956       -1.42577        3.24885
H          4.23201       -2.36029        3.76976
C          4.86891       -0.33405        3.37153
H          5.76969       -0.40880        3.98542
H          2.69099       -2.43399        0.05005
H          2.27446       -2.63669       -1.65072
C          4.01952       -1.44832       -1.33437
C          4.32355       -1.32680       -2.69795
H          3.56892       -1.58771       -3.44559
C          5.01452       -1.14405       -0.39994
H          4.79472       -1.24560        0.66423
C          5.57966       -0.88500       -3.10482
H          5.80262       -0.78658       -4.16998
C          6.28566       -0.71100       -0.79152
C          7.34043       -0.42872        0.23836
H          6.89923       -0.00020        1.14965
H          7.85748       -1.35699        0.53382
H          8.10345        0.26497       -0.14321
C          6.55399       -0.57329       -2.15822
H          7.53920       -0.22749       -2.48332
H          2.26462        0.33109       -2.71070
H          0.75611        1.11292       -2.25915
C          2.46824        1.90737       -1.25541
C          1.77213        2.95566       -0.63694
H          0.67916        2.94627       -0.61896
C          3.86461        1.97100       -1.29865
H          4.41860        1.17427       -1.79662
C          2.46189        4.01910       -0.05959
H          1.90706        4.83225        0.41479
C          4.57350        3.02691       -0.71748
C          6.07395        3.03184       -0.73274
H          6.46679        2.51210       -1.61800
H          6.47766        4.05462       -0.71647
H          6.47034        2.50411        0.15080
C          3.85446        4.05272       -0.09276
H          4.39070        4.89005        0.36235
H         -1.16481        1.58945       -1.08079
H         -1.20588        1.32755        0.66504
C         -2.93912        2.32236       -0.14271
C         -3.61575        2.56438        1.06133
H         -3.30899        2.04102        1.96878
C         -3.34494        3.04007       -1.27768
H         -2.81485        2.88940       -2.22248
C         -4.67407        3.46767        1.12325
H         -5.18544        3.63602        2.07410
C         -4.40349        3.94423       -1.22043
H         -4.70038        4.48786       -2.12045
C         -5.07849        4.15726       -0.01927
H         -5.90973        4.86430        0.02872
H         -3.60629        0.56817       -2.24956
H         -3.43072       -1.17492       -2.49235
C         -5.04179       -0.63204       -1.18734
C         -5.56006       -1.93178       -1.10010
H         -4.97395       -2.77187       -1.48358
C         -5.82139        0.42721       -0.71407
H         -5.43931        1.44657       -0.79391
C         -6.81302       -2.15552       -0.53790
H         -7.20879       -3.17256       -0.47918
C         -7.08156        0.21998       -0.14191
C         -7.87106        1.38463        0.38210
H         -7.44395        1.75283        1.32961
H         -7.85245        2.22953       -0.32264
H         -8.91944        1.11281        0.57003
C         -7.56853       -1.08787       -0.05565
H         -8.55235       -1.27050        0.38526
H         -3.79203       -0.14992        1.33144
H         -3.67965       -1.83170        0.82073
C         -2.10471       -1.24780        2.14878
C         -1.62956       -2.55431        2.31620
H         -2.02665       -3.35218        1.68411
C         -1.59266       -0.24908        2.98629
H         -1.95385        0.77712        2.88046
C         -0.67437       -2.84219        3.28751
H         -0.32326       -3.86955        3.41460
C         -0.61323       -0.51220        3.95008
C         -0.01150        0.59653        4.76200
H         -0.65524        1.48762        4.77435
H          0.16802        0.28636        5.80201
H          0.96351        0.89315        4.33872
C         -0.16364       -1.82914        4.09567
H          0.59824       -2.05794        4.84544
