96
Cat631.ts34.5.log	Energy: -2436004.0414781
C         -0.65841       -3.99409       -0.85683
H         -0.39311       -4.78658       -0.15132
H         -1.70053       -4.04403       -1.19228
C          0.33142       -3.54800       -1.77955
H          1.34939       -3.95176       -1.71315
H          0.03249       -3.37864       -2.82116
H          0.17975       -1.91158       -1.73077
Co         0.03167       -2.20461       -0.27976
C         -1.89556        0.37204       -1.48079
C         -3.36680       -1.94846       -0.33170
C         -1.92660       -0.08213        1.46646
C          1.84923        0.11431        1.41091
C          3.30471       -1.91046       -0.24155
C          1.88288        0.35045       -1.55635
P          1.73327       -0.89294       -0.16433
P         -1.76670       -0.97847       -0.17864
C          0.27687       -2.78404        1.33125
O          0.43125       -3.12433        2.42756
H         -1.27758       -0.02174       -2.30045
H         -1.35609        1.23459       -1.06033
C         -3.22174        0.79827       -2.02937
C         -3.90860        1.91161       -1.53100
H         -3.47215        2.49632       -0.72099
C         -3.79525        0.08723       -3.09389
H         -3.25802       -0.76484       -3.52095
C         -5.14374        2.28131       -2.05758
H         -5.66239        3.15062       -1.64618
C         -5.03108        0.45463       -3.62248
H         -5.45932       -0.11647       -4.44976
C         -5.71556        1.55154       -3.09933
H         -6.68522        1.84221       -3.51027
H         -3.06384       -2.95808       -0.02140
H         -3.57992       -2.00181       -1.41015
C         -4.58511       -1.54220        0.43823
C         -5.58892       -0.74059       -0.11919
H         -5.49522       -0.39684       -1.14926
C         -4.75331       -1.99100        1.75708
H         -3.99856       -2.64777        2.19992
C         -6.70744       -0.37602        0.62633
H         -7.47333        0.25440        0.16802
C         -5.86967       -1.62474        2.50644
H         -5.97570       -1.98448        3.53274
C         -6.85064       -0.80769        1.94470
H         -7.72743       -0.51865        2.52895
H         -0.89240       -0.04321        1.83136
H         -2.45989       -0.78295        2.12565
C         -2.52637        1.28740        1.54061
C         -3.87595        1.49609        1.84968
H         -4.52115        0.64133        2.05201
C         -1.71896        2.41277        1.31867
H         -0.65214        2.27509        1.12301
C         -4.40480        2.78355        1.90202
H         -5.46253        2.91750        2.14120
C         -2.24533        3.70207        1.36503
H         -1.59411        4.56127        1.18628
C         -3.59724        3.89247        1.65025
H         -4.01530        4.90108        1.68888
H          1.18835       -0.41435        2.11179
H          1.37011        1.07774        1.18161
C          3.17717        0.33107        2.06785
C          3.92146        1.49829        1.86284
H          3.53172        2.27894        1.20840
C          3.68816       -0.64539        2.93523
H          3.10052       -1.54743        3.13182
C          5.15536        1.67208        2.48530
H          5.72152        2.58954        2.30733
C          4.92359       -0.47373        3.55652
H          5.30527       -1.24712        4.22734
C          5.66603        0.68511        3.32794
H          6.63473        0.82211        3.81426
H          2.97267       -2.81388       -0.77169
H          3.49690       -2.21487        0.79819
C          4.54115       -1.37101       -0.89030
C          5.55481       -0.74753       -0.15274
H          5.45589       -0.65615        0.92904
C          4.71323       -1.50020       -2.27643
H          3.94907       -2.01599       -2.86577
C          6.68824       -0.24234       -0.78493
H          7.46262        0.24422       -0.18696
C          5.84530       -0.99364       -2.91201
H          5.95602       -1.10369       -3.99347
C          6.83615       -0.35413       -2.16728
H          7.72499        0.04465       -2.66182
H          0.84310        0.49541       -1.87743
H          2.39033       -0.18784       -2.37101
C          2.52126        1.68260       -1.30808
C          3.87903        1.91595       -1.55660
H          4.50091        1.11348       -1.95303
C          1.74428        2.74678       -0.82744
H          0.67204        2.60019       -0.67027
C          4.44603        3.16241       -1.30195
H          5.50944        3.31644       -1.50006
C          2.30948        3.99328       -0.56615
H          1.68261        4.80512       -0.18935
C          3.66879        4.20394       -0.79608
H          4.11667        5.17953       -0.59326
