80
Cat613.ts34.5.log	Energy: -2053688.1465915
C         -1.00150        2.60714       -1.50641
H         -0.41211        2.96949       -2.35352
H         -2.06411        2.46909       -1.74074
C         -0.62818        3.00359       -0.19908
H          0.24749        3.64332       -0.06026
H         -1.41925        3.22169        0.52857
H         -0.46834        1.59668        0.72336
Co        -0.06038        1.06583       -0.60221
C         -3.03077        0.67114        0.81650
C         -2.94207       -0.38672       -1.88251
C         -1.76741       -1.91169        0.34231
C          2.34785       -1.16182        0.19325
C          3.25748        1.61647       -0.12872
C          1.67474        0.80065        2.32882
P          1.77964        0.61863        0.46479
P         -1.84452       -0.18339       -0.36137
C          0.71845        0.55810       -2.05284
O          1.30195        0.18372       -2.98322
H         -3.02725        1.71908        0.47964
H         -2.51873        0.66340        1.79094
C         -4.43768        0.18034        0.93423
C         -4.76977       -0.90325        1.75986
H         -3.99425       -1.37219        2.37020
C         -5.46449        0.78253        0.19432
H         -5.23226        1.64570       -0.43585
C         -6.07321       -1.39152        1.81326
H         -6.30721       -2.24010        2.46087
C         -6.76874        0.29694        0.24458
H         -7.55045        0.78039       -0.34646
C         -7.07759       -0.79950        1.04825
H         -8.09936       -1.18392        1.08778
H         -3.51187        0.55994       -1.87818
C         -2.13270       -0.41954       -3.17399
H         -2.80951       -0.50899       -4.03929
H         -1.53581        0.49204       -3.29966
H         -1.43801       -1.27279       -3.20660
C         -3.95321       -1.53051       -1.84326
H         -4.55784       -1.54417       -0.92788
H         -4.64802       -1.43433       -2.69336
H         -3.46148       -2.50973       -1.94252
H         -2.80455       -2.27805        0.41920
C         -0.98766       -2.82977       -0.59247
H         -0.92772       -3.84633       -0.17112
H         -1.44814       -2.90890       -1.58640
H          0.03928       -2.46428       -0.73361
C         -1.14322       -1.90482        1.73081
H         -1.71818       -1.31015        2.45584
H         -1.07020       -2.93057        2.12676
H         -0.12847       -1.48351        1.69325
H          1.79428       -1.45941       -0.70660
H          1.92511       -1.74934        1.02136
C          3.79601       -1.48924       -0.01496
C          4.60564       -1.99830        1.00806
H          4.17637       -2.18082        1.99536
C          4.36976       -1.30436       -1.28147
H          3.74174       -0.95139       -2.10492
C          5.95335       -2.27427        0.78673
H          6.56543       -2.66962        1.60116
C          5.71787       -1.57300       -1.50394
H          6.14354       -1.41562       -2.49798
C          6.51887       -2.05090       -0.46750
H          7.57656       -2.26252       -0.64070
H          3.49528        1.08369       -1.06598
C          2.86452        3.03482       -0.52546
H          3.71046        3.52730       -1.03146
H          2.00614        3.02780       -1.21020
H          2.60197        3.65053        0.34845
C          4.51274        1.61530        0.73610
H          4.85456        0.60459        0.99150
H          5.33284        2.10934        0.19001
H          4.36383        2.17895        1.66925
H          0.68723        0.34828        2.52239
C          2.69652        0.05466        3.17656
H          2.48277        0.22678        4.24433
H          2.65151       -1.03062        3.01319
H          3.72709        0.38337        2.98853
C          1.57397        2.27073        2.72604
H          0.81710        2.80233        2.13299
H          1.28948        2.35478        3.78712
H          2.53359        2.79401        2.60298
