92
Cat687.ts34.5.log	Energy: -2433607.0445196
C          0.03028       -3.42755        0.67044
H          0.98564       -3.73642        1.10585
H         -0.84424       -3.84440        1.17789
C         -0.05724       -3.12500       -0.70325
H          0.81816       -3.29380       -1.34027
H         -1.00344       -3.27059       -1.23524
H          0.45673       -1.49477       -0.91094
Co        -0.16622       -1.41046        0.42567
C         -0.89683        0.88077       -1.98358
O         -2.87317       -0.58130       -1.32062
O         -2.02613        1.06391        0.51170
C          1.24215        0.97070        2.29130
O          3.05696       -0.61073        1.31691
O          1.80470        0.80419       -0.42556
P          1.48726       -0.19214        0.89024
P         -1.46540       -0.09358       -0.55234
C         -0.98188       -1.40453        1.95840
O         -1.47771       -1.39520        2.99660
H         -1.75735        1.46514       -2.34272
H         -0.13367        1.56858       -1.58810
C         -0.31522        0.04346       -3.11384
H         -1.09841       -0.62194       -3.51347
H          0.47379       -0.61210       -2.71041
C          0.26792        0.90243       -4.22429
H         -0.49594        1.56152       -4.66676
H          1.07835        1.54244       -3.84024
H          0.68420        0.28309       -5.03323
C         -3.89327       -1.32104       -0.78904
C         -3.66917       -2.43852        0.01368
H         -2.64331       -2.72263        0.24263
C         -5.19532       -0.90852       -1.12035
C         -5.40555        0.27522       -2.01216
H         -4.98478        1.18939       -1.56672
H         -4.90065        0.13343       -2.98032
H         -6.47529        0.44215       -2.19683
C         -4.75138       -3.14805        0.53129
H         -4.57033       -4.01626        1.16905
C         -6.25945       -1.64165       -0.59020
H         -7.27932       -1.33106       -0.83336
C         -6.05074       -2.74677        0.23515
H         -6.90395       -3.29582        0.63940
C         -3.09810        1.90588        0.36102
C         -3.03903        2.99654       -0.50671
H         -2.12554        3.18004       -1.07255
C         -4.22633        1.67803        1.16827
C         -4.24750        0.55483        2.15697
H         -4.25736       -0.42609        1.65803
H         -3.35292        0.57156        2.79591
H         -5.13892        0.61608        2.79533
C         -4.13364        3.85033       -0.62922
H         -4.08440        4.69880       -1.31544
C         -5.30806        2.55229        1.02546
H         -6.19639        2.38555        1.64059
C         -5.27741        3.62081        0.13088
H         -6.14159        4.28259        0.04066
H          0.63414        1.78708        1.86214
H          0.55814        0.44924        2.98029
C          2.44757        1.49073        3.06426
H          3.20841        1.88406        2.37494
H          2.92827        0.64213        3.57441
C          2.05576        2.55872        4.07294
H          1.62090        3.44098        3.57501
H          1.30380        2.18343        4.78557
H          2.92592        2.89988        4.65418
C          3.91196       -1.39950        0.60413
C          3.48866       -2.55042       -0.05668
H          2.43624       -2.82064       -0.00985
C          5.26158       -1.00611        0.58847
C          5.69395        0.23139        1.31089
H          6.77935        0.37646        1.22614
H          5.19336        1.12243        0.90064
H          5.42871        0.18124        2.37791
C          4.40495       -3.32468       -0.76505
H          4.06469       -4.22460       -1.28273
C          6.15914       -1.80298       -0.12645
H          7.21217       -1.50914       -0.15058
C          5.74515       -2.94980       -0.80517
H          6.47113       -3.55057       -1.35730
C          2.86991        1.62926       -0.65921
C          2.97080        2.85651        0.00117
H          2.19409        3.13989        0.71230
C          3.80342        1.25873       -1.64188
C          3.66378       -0.01063       -2.42642
H          4.49456       -0.70173       -2.21649
H          2.72928       -0.52765       -2.18120
H          3.67065        0.20210       -3.50678
C          4.04063        3.70689       -0.25894
H          4.11627        4.66073        0.26806
C          4.86909        2.13440       -1.88368
H          5.61059        1.85568       -2.63772
C          5.00334        3.33779       -1.19762
H          5.84948        3.99579       -1.40746
