84
Cat620.ts34.5.log	Energy: -2586383.2814035
C         -0.64082       -2.84080       -2.09415
H         -0.26861       -3.83224       -1.82043
H         -1.70706       -2.83226       -2.35056
C          0.23729       -1.94236       -2.75156
H          1.28156       -2.22401       -2.92343
H         -0.16564       -1.31442       -3.55468
H          0.08034       -0.47426       -1.90113
Co        -0.01744       -1.44350       -0.78207
C         -2.84920       -0.02473       -1.93392
C         -3.11749       -1.16169        0.66989
C         -1.67762        1.28027        0.39273
C          2.05008       -0.38170        1.73198
C          3.28932       -0.91461       -0.80399
C          1.75643        1.45185       -0.53370
P          1.69159       -0.33263       -0.11019
P         -1.84099       -0.37225       -0.38737
C          0.14642       -2.64926        0.44656
O          0.24319       -3.43672        1.28791
H         -2.71813       -0.93170       -2.54297
H         -2.32980        0.78202       -2.47270
C         -4.30347        0.25920       -1.73247
C         -4.78159        1.55214       -1.48513
H         -4.09075        2.39727       -1.49619
C         -5.22107       -0.80001       -1.71633
H         -4.86546       -1.81705       -1.90178
C         -6.13011        1.77524       -1.21224
H         -6.48105        2.79230       -1.02076
C         -6.56770       -0.58081       -1.44369
H         -7.26161       -1.42460       -1.42866
C         -7.02787        0.70961       -1.18419
H         -8.08405        0.88474       -0.96655
C         -4.11548       -0.43322        1.33288
H         -4.11266        0.65773        1.29500
C         -3.16373       -2.55902        0.71381
H         -2.39150       -3.13547        0.20062
C         -5.13067       -1.08093        2.02700
H         -5.91612       -0.52505        2.54175
C         -4.17979       -3.22280        1.39712
H         -4.22498       -4.31238        1.44039
C         -5.15112       -2.47122        2.04546
F         -6.12535       -3.09617        2.70298
C         -1.46275        1.34958        1.77767
H         -1.47821        0.43243        2.37301
C         -1.63266        2.47001       -0.34265
H         -1.74985        2.45568       -1.42717
C         -1.24040        2.56712        2.41431
H         -1.07893        2.62823        3.49232
C         -1.41907        3.69715        0.27930
H         -1.37654        4.62614       -0.29168
C         -1.22557        3.72977        1.65265
F         -0.98747        4.89808        2.24930
H          1.64022       -1.34565        2.06293
H          1.42430        0.39381        2.19870
C          3.49391       -0.28351        2.11903
C          4.12447        0.93607        2.39019
H          3.54629        1.86162        2.38769
C          4.27061       -1.45044        2.14829
H          3.79350       -2.41268        1.94512
C          5.49170        0.99064        2.65823
H          5.96264        1.95444        2.86670
C          5.63566       -1.39924        2.41024
H          6.22063       -2.32195        2.41740
C          6.25474       -0.17472        2.66030
H          7.32720       -0.13072        2.86373
C          4.41347       -0.08596       -0.91691
H          4.33844        0.97396       -0.66597
C          3.41262       -2.27071       -1.12252
H          2.53223       -2.91341       -1.03653
C          5.63789       -0.60159       -1.32564
H          6.52542        0.02801       -1.40834
C          4.63385       -2.80310       -1.52809
H          4.74696       -3.86002       -1.77594
C          5.73219       -1.95764       -1.62025
F          6.90440       -2.45588       -2.00617
C          1.78643        1.78728       -1.89659
H          1.80061        0.99328       -2.64825
C          1.73141        2.48831        0.40096
H          1.66539        2.27240        1.46657
C          1.80419        3.11285       -2.31293
H          1.83093        3.38130       -3.37060
C          1.75083        3.82388        0.00222
H          1.71107        4.63537        0.73102
C          1.78747        4.11911       -1.35159
F          1.78875        5.39157       -1.74350
