96
Cat623.ts34.5.log	Energy: -2436002.1489284
C         -1.60423       -0.03201       -2.96449
H         -1.24249       -0.72683       -3.72773
H         -2.68971       -0.03589       -2.82288
C         -0.87471        1.15033       -2.72943
H          0.04925        1.33250       -3.28857
H         -1.42727        2.06734       -2.49444
H         -0.54682        1.24037       -1.03754
Co        -0.54923       -0.22704       -1.23400
C         -1.96191        1.21159        1.64939
C         -3.74614        0.12260       -0.44433
C         -2.27465       -1.52879        1.47364
C          1.55734        0.10340        1.40199
C          2.31737       -1.80191       -0.72899
C          2.68508        1.08771       -1.04841
P          1.48268       -0.19308       -0.45460
P         -2.08156       -0.10522        0.30165
C         -0.49549       -1.90269       -1.66449
O         -0.49387       -3.01363       -1.97725
H         -1.08692        0.85853        2.21663
H         -2.82211        1.09237        2.32131
C         -1.79542        2.66322        1.30619
C         -2.81008        3.58098        1.61440
H         -3.72446        3.22310        2.09591
C         -0.62738        3.15923        0.71385
H          0.18968        2.47805        0.48327
C         -2.67586        4.93469        1.31448
H         -3.48381        5.62657        1.56461
C         -0.48778        4.51127        0.40958
H          0.43785        4.86305       -0.05328
C         -1.51523        5.40595        0.70227
H         -1.40850        6.46704        0.46536
C         -4.23102        1.42678       -0.61401
H         -3.66231        2.26980       -0.22339
C         -4.45832       -0.95359       -1.02620
C         -3.98032       -2.37529       -0.97980
H         -4.11407       -2.82715        0.01520
H         -2.91096       -2.45394       -1.21575
H         -4.53293       -2.98869       -1.70466
C         -5.42461        1.68209       -1.28359
H         -5.77508        2.71117       -1.39272
C         -5.65986       -0.67281       -1.68819
H         -6.21523       -1.50507       -2.12977
C         -6.15372        0.62276       -1.81361
H         -7.09344        0.80187       -2.34133
C         -1.19060       -2.41438        1.51220
H         -0.37068       -2.25308        0.81047
C         -3.36897       -1.74436        2.34434
C         -4.63239       -0.92920        2.34289
H         -5.31757       -1.27466        1.55180
H         -4.47029        0.13674        2.14780
H         -5.15531       -1.03085        3.30425
C         -1.14749       -3.49178        2.39098
H         -0.28789       -4.16615        2.38494
C         -3.30376       -2.83323        3.22515
H         -4.14518       -3.00556        3.90226
C         -2.21431       -3.69897        3.25920
H         -2.20620       -4.53705        3.96036
H          1.01902       -0.73567        1.86669
H          0.89936        0.97515        1.51591
C          2.85943        0.38081        2.08629
C          3.45438        1.64569        1.97557
H          2.95066        2.42760        1.40243
C          3.51259       -0.59085        2.85580
H          3.05358       -1.57267        2.99103
C          4.68153        1.91441        2.57478
H          5.12940        2.90497        2.46527
C          4.73931       -0.32380        3.45969
H          5.23081       -1.09909        4.05237
C          5.33530        0.92722        3.31108
H          6.29966        1.13690        3.77980
C          2.43437       -2.73262        0.30897
H          2.11747       -2.46566        1.31654
C          2.68933       -2.17906       -2.03987
C          2.52558       -1.25328       -3.20840
H          3.32301       -0.49363       -3.24390
H          1.57155       -0.70671       -3.13142
H          2.54151       -1.81015       -4.15522
C          2.94731       -4.00742        0.08654
H          3.03084       -4.71338        0.91615
C          3.20769       -3.46193       -2.24059
H          3.49553       -3.75629       -3.25360
C          3.34743       -4.37100       -1.19533
H          3.75208       -5.36736       -1.38759
C          2.09692        2.27212       -1.51373
H          1.01027        2.32900       -1.55861
C          4.09879        0.99882       -1.00460
C          4.87278       -0.19756       -0.53261
H          4.90220       -0.98869       -1.29772
H          4.44357       -0.64677        0.36955
H          5.90784        0.09266       -0.30635
C          2.85223        3.36825       -1.91852
H          2.35403        4.27506       -2.26959
C          4.83865        2.10961       -1.43593
H          5.92958        2.04630       -1.40075
C          4.23998        3.28259       -1.88279
H          4.85888        4.12510       -2.20095
