96
Cat692.ts34.5.log	Energy: -2059744.6079652
C         -0.62363        2.82790        0.90251
H         -0.55043        3.63571        0.16843
H         -1.55839        2.84496        1.47458
C          0.56723        2.39737        1.55567
H          1.52923        2.83595        1.26916
H          0.52071        2.19305        2.63283
H          0.42936        0.75479        1.50070
Co        -0.05544        1.06646        0.13548
C         -1.41477       -1.67994        1.71982
C         -3.18792        0.54287        1.40253
C         -2.49590       -1.06904       -0.86595
C          1.15877       -1.64434       -1.50174
C          2.90548        0.63739       -1.47660
C          2.54622       -0.85862        0.97526
P          1.59780       -0.17751       -0.45754
P         -1.71659       -0.23877        0.59479
C         -0.36339        1.60807       -1.47597
O         -0.61210        1.92205       -2.56289
H         -2.33111       -2.28771        1.80996
H         -0.66645       -2.31219        1.20918
C         -0.90641       -1.29409        3.10195
H         -1.69629       -0.74688        3.64432
H         -0.07155       -0.58073        2.99078
C         -0.45478       -2.48944        3.92646
H         -1.27144       -3.21597        4.06510
H          0.37571       -3.02036        3.43247
H         -0.10663       -2.18411        4.92508
H         -2.80288        1.08383        2.28408
H         -3.86826       -0.23775        1.78179
C         -3.90450        1.51357        0.47253
H         -3.14747        2.10667       -0.06807
H         -4.45539        0.94962       -0.30189
C         -4.87868        2.46848        1.16482
H         -4.30207        3.03227        1.92305
C         -5.43754        3.47157        0.16285
H         -4.63119        4.03157       -0.33556
H         -6.10521        4.19948        0.64960
H         -6.01959        2.95855       -0.62121
C         -6.00143        1.72864        1.88340
H         -6.69748        2.43195        2.36657
H         -5.61865        1.05377        2.66379
H         -6.58497        1.12016        1.17127
H         -1.69137       -1.64958       -1.34606
H         -2.71369       -0.24629       -1.56566
C         -3.71796       -1.94731       -0.64512
H         -3.44602       -2.80064       -0.00149
H         -4.49655       -1.39000       -0.09376
C         -4.34314       -2.49544       -1.93268
H         -3.54067       -3.00281       -2.50145
C         -5.41254       -3.53116       -1.60460
H         -5.00258       -4.36006       -1.00639
H         -5.85272       -3.96018       -2.51818
H         -6.23220       -3.07547       -1.02390
C         -4.91517       -1.38874       -2.81219
H         -5.35858       -1.80155       -3.73149
H         -4.15066       -0.65828       -3.11556
H         -5.70927       -0.83935       -2.27826
H          0.67655       -2.36219       -0.81432
H          0.35163       -1.28100       -2.15976
C          2.21604       -2.34444       -2.34785
H          3.06318       -2.66499       -1.72231
H          2.63266       -1.63031       -3.07640
C          1.64854       -3.54542       -3.09048
H          1.26094       -4.30205       -2.38921
H          0.81481       -3.24936       -3.74724
H          2.41126       -4.03162       -3.71769
H          2.42333        0.88148       -2.43947
H          3.71494       -0.07695       -1.69325
C          3.43605        1.90731       -0.83097
H          2.57333        2.55918       -0.61825
H          3.88834        1.67167        0.15091
C          4.46351        2.67623       -1.66339
H          4.00622        2.87558       -2.65092
C          4.77079        4.01837       -1.00934
H          3.85669        4.61725       -0.87517
H          5.47771        4.60949       -1.61204
H          5.22291        3.87358       -0.01359
C          5.74199        1.87592       -1.88824
H          6.47398        2.45062       -2.47669
H          5.55417        0.93461       -2.42652
H          6.21629        1.62189       -0.92458
H          1.81015       -1.42704        1.56849
H          2.76792        0.03536        1.58015
C          3.80259       -1.68424        0.74685
H          3.52470       -2.66036        0.31696
H          4.45625       -1.19741        0.00118
C          4.62802       -1.92868        2.01545
H          3.94326       -2.33001        2.78668
C          5.70630       -2.97391        1.75375
H          5.27160       -3.92569        1.41036
H          6.29641       -3.18040        2.66003
H          6.40545       -2.62683        0.97445
C          5.24409       -0.64186        2.55439
H          5.82519       -0.83242        3.46972
H          4.48471        0.11530        2.80093
H          5.92864       -0.19845        1.81126
