62
Cat639.ts34.5.log	Energy: -1905809.3027148
C          0.69795        3.84794       -0.20603
H          0.12003        4.55172        0.39970
H          1.78074        3.95360       -0.07579
C          0.19764        3.49617       -1.49675
H         -0.78774        3.86295       -1.80580
H          0.90178        3.46921       -2.33783
H          0.43890        1.89413       -1.54679
Co        -0.04965        1.99699       -0.14112
C          2.04237       -0.70697       -0.46547
C          3.29258        1.70371        0.55265
C          1.59825        0.21674        2.22503
C         -1.93985       -0.73220        0.42644
C         -3.16996        1.35242       -1.21079
C         -1.23754       -0.33740       -2.34638
P         -1.53873        0.61389       -0.80691
P          1.66262        0.85472        0.50155
C         -0.94851        2.37384        1.28463
O         -1.53750        2.58224        2.26006
H          1.14820       -1.33537       -0.32347
H          2.03916       -0.39903       -1.52085
C          3.27690       -1.47207       -0.10394
C          3.24075       -2.37875        0.96395
H          2.29305       -2.54444        1.48308
C          4.49029       -1.29370       -0.80398
C          4.57985       -0.39810       -2.00689
H          4.30935        0.64215       -1.77462
H          3.90116       -0.73348       -2.80840
H          5.59910       -0.39388       -2.41674
C          4.37410       -3.07734        1.36945
H          4.31461       -3.77741        2.20611
C          5.62126       -2.00216       -0.38290
H          6.56034       -1.86322       -0.92589
C          5.57685       -2.88076        0.69649
H          6.47732       -3.41897        1.00144
H          3.49218        2.19654       -0.40969
H          3.23703        2.48762        1.32222
H          4.11718        1.01637        0.79673
H          1.42187        1.07479        2.89042
H          0.74115       -0.46503        2.33101
H          2.51936       -0.30096        2.53229
H         -1.04587       -1.37672        0.42477
H         -1.95978       -0.23593        1.40657
C         -3.17828       -1.53413        0.17656
C         -3.13849       -2.62439       -0.70190
H         -2.18188       -2.90871       -1.14870
C         -4.40311       -1.19361        0.79084
C         -4.49202       -0.08868        1.80490
H         -4.08088        0.86267        1.43872
H         -3.92525       -0.34007        2.71684
H         -5.53456        0.08778        2.10267
C         -4.28196       -3.35797       -1.00610
H         -4.22209       -4.20458       -1.69406
C         -5.54334       -1.93907        0.47179
H         -6.49296       -1.67530        0.94565
C         -5.49558       -3.00656       -0.42164
H         -6.40383       -3.56893       -0.65053
H         -3.51290        1.97418       -0.37279
H         -3.02471        2.01514       -2.07693
H         -3.93196        0.59538       -1.45270
H         -1.04693        0.38210       -3.15610
H         -0.34216       -0.96426       -2.23268
H         -2.09756       -0.96747       -2.61722
