84
Cat616.ts34.5.log	Energy: -2242454.2803547
C         -0.93851       -3.57753       -0.80228
H         -0.84699       -4.43627       -0.13132
H         -1.97261       -3.36255       -1.09406
C          0.11374       -3.32815       -1.72585
H          1.01501       -3.94835       -1.69043
H         -0.14335       -3.02619       -2.74778
H          0.31096       -1.65891       -1.59408
Co         0.14152       -2.00623       -0.16706
C         -2.14094        0.00805       -1.53426
O         -2.95237       -1.16318        0.66116
O         -1.11683        0.60333        1.02409
C          2.10057        0.08707        1.57418
O          3.19238       -0.93725       -0.59428
O          1.30435        0.77532       -0.95150
P          1.66530       -0.57540       -0.08155
P         -1.49205       -0.67385        0.05482
C          0.52308       -2.77835        1.35072
O          0.72360       -3.26752        2.37694
H         -2.33903       -0.91278       -2.11085
H         -1.24827        0.46614       -1.98809
C         -3.32145        0.93164       -1.59834
C         -3.18342        2.21116       -2.15073
H         -2.20950        2.52374       -2.53751
C         -4.59017        0.53881       -1.14639
H         -4.71289       -0.45709       -0.72015
C         -4.26437        3.08809       -2.21929
H         -4.12928        4.08241       -2.65214
C         -5.67098        1.41393       -1.21342
H         -6.64956        1.09061       -0.84935
C         -5.51311        2.69486       -1.74303
H         -6.36303        3.37963       -1.79336
C         -3.05708       -1.68295        1.98855
H         -2.17332       -1.35415        2.56654
C         -3.09576       -3.19734        1.96166
H         -2.16864       -3.60247        1.53987
H         -3.94178       -3.54379        1.34810
H         -3.21641       -3.59629        2.98000
C         -4.30793       -1.08401        2.60152
H         -4.27740        0.01394        2.56741
H         -5.19825       -1.41512        2.04465
H         -4.41921       -1.40065        3.64936
C         -1.91175        1.76737        1.27200
H         -2.92543        1.60435        0.86866
C         -1.26753        2.94850        0.57618
H         -1.15859        2.75221       -0.49663
H         -0.26353        3.13382        0.98452
H         -1.87921        3.85442        0.70111
C         -1.99454        1.95949        2.77359
H         -2.44557        1.08500        3.26212
H         -0.98844        2.10405        3.19697
H         -2.60122        2.84433        3.01787
H          2.59733       -0.75390        2.08603
H          1.12394        0.23811        2.05569
C          2.91824        1.34099        1.62799
C          2.36835        2.51026        2.16676
H          1.34985        2.48367        2.56117
C          4.23248        1.38804        1.14241
H          4.67244        0.48337        0.71906
C          3.09747        3.69749        2.20795
H          2.64583        4.59708        2.63329
C          4.96070        2.57478        1.17607
H          5.98198        2.59286        0.78717
C          4.39641        3.73586        1.70518
H          4.97039        4.66512        1.73109
C          3.46338       -1.97150       -1.54367
H          2.57295       -2.10584       -2.18297
C          3.73761       -3.26615       -0.80643
H          2.85948       -3.54487       -0.20642
H          4.59952       -3.14550       -0.13226
H          3.95680       -4.08160       -1.51224
C          4.62906       -1.51097       -2.39376
H          4.39264       -0.57160       -2.91363
H          5.51765       -1.34331       -1.76586
H          4.87899       -2.27115       -3.14877
C          2.20212        1.51422       -1.78216
H          3.23584        1.23228       -1.52685
C          2.01022        2.98993       -1.50621
H          2.22738        3.21764       -0.45424
H          0.97428        3.29233       -1.72356
H          2.68541        3.58650       -2.13784
C          1.92504        1.14381       -3.22799
H          2.04507        0.06176       -3.38580
H          0.89253        1.41301       -3.50114
H          2.61093        1.67090       -3.90853
