56
Cat610.ts34.5.log	Energy: -1856507.5912766
C         -1.20662       -3.27710       -0.47830
H         -0.97263       -4.11646        0.18278
H         -2.28492       -3.08789       -0.56188
C         -0.39465       -3.07201       -1.63718
H          0.49663       -3.69224       -1.78237
H         -0.89286       -2.84702       -2.58849
H         -0.20629       -1.45717       -1.62988
Co        -0.00942       -1.71038       -0.17483
C         -2.77779        0.09450       -0.95340
C         -2.67563       -0.97199        1.73367
C         -1.17418        1.31305        1.10215
C          2.55874        0.23545        0.86689
C          3.08511       -1.44355       -1.42606
C          1.51366        0.88168       -1.75074
P          1.71867       -0.53711       -0.60552
P         -1.57265       -0.34519        0.40645
C          0.64771       -2.39462        1.27782
O          1.06597       -2.81366        2.27204
H         -3.09040       -0.87363       -1.37652
H         -2.16303        0.58774       -1.72296
C         -3.95868        0.93025       -0.57908
C         -3.89843        2.32963       -0.63381
H         -2.98743        2.81125       -1.00008
C         -5.14612        0.33913       -0.12575
H         -5.21921       -0.75123       -0.08786
C         -4.98191        3.11206       -0.24035
H         -4.91263        4.20130       -0.29598
C         -6.23150        1.11802        0.26841
H         -7.14799        0.63413        0.61502
C         -6.15294        2.50913        0.21624
H         -7.00415        3.12101        0.52358
H         -3.11048       -1.93235        1.42232
H         -2.05422       -1.16175        2.62153
H         -3.48178       -0.26876        1.99168
H         -2.07547        1.88506        1.37090
H         -0.56372        1.16450        2.00556
H         -0.58232        1.89849        0.38324
H          2.78725       -0.60587        1.53980
H          1.77602        0.82819        1.36425
C          3.77291        1.06323        0.59057
C          3.66450        2.43744        0.33747
H          2.68098        2.91351        0.38356
C          5.04721        0.48172        0.54673
H          5.15531       -0.58534        0.75911
C          4.78897        3.20363        0.03902
H          4.68086        4.27438       -0.15068
C          6.17390        1.24481        0.24836
H          7.15818        0.77077        0.22387
C          6.04892        2.60894       -0.01074
H          6.93211        3.20863       -0.24259
H          3.41013       -2.26642       -0.77310
H          2.69053       -1.88575       -2.35258
H          3.94301       -0.79632       -1.66350
H          1.14313        0.49157       -2.70991
H          0.75763        1.57494       -1.35528
H          2.45500        1.42658       -1.91519
