60
Cat669.ts34.5.log	Energy: -1763944.3096456
C          1.30139       -2.70443        0.89128
H          1.05154       -3.63021        0.36476
H          2.37882       -2.56210        1.03237
C          0.41524       -2.24331        1.90680
H         -0.51879       -2.78355        2.09416
H          0.85156       -1.85440        2.83561
H          0.30344       -0.63475        1.58555
Co         0.25801       -1.14177        0.19315
C          1.78295        1.89600        0.76785
C          3.54133       -0.20628       -0.05000
C          1.77022        1.02298       -1.95455
C         -1.88633        1.15647       -1.09695
C         -3.11751       -1.26439       -0.15361
C         -2.08400        0.63639        1.78982
P         -1.66193       -0.17152        0.17833
P          1.77801        0.33494       -0.23093
C         -0.00367       -1.92915       -1.32215
O         -0.15175       -2.41102       -2.36481
H          2.56586        2.57984        0.39767
H          0.81393        2.38666        0.56531
C          1.94661        1.68006        2.26580
H          2.94752        1.26326        2.47073
H          1.22848        0.91023        2.59739
C          1.74888        2.95191        3.07575
H          2.46449        3.73493        2.77769
H          0.73575        3.36127        2.92997
H          1.88252        2.77065        4.15322
H          3.62969       -0.61251        0.97119
C          3.93848       -1.26258       -1.07018
H          3.99160       -0.84538       -2.08739
H          3.20498       -2.08264       -1.08946
H          4.21135        0.66916       -0.09872
H          4.92553       -1.69136       -0.83848
H          0.78571        1.50412       -2.06913
C          2.88032        1.97653       -2.36651
H          3.87408        1.50913       -2.29461
H          2.89688        2.88630       -1.74741
H          1.73928        0.14304       -2.61811
H          2.74855        2.29922       -3.41138
H         -1.32297        2.02821       -0.71785
H         -1.31695        0.79709       -1.97026
C         -3.28087        1.57511       -1.55002
H         -3.89430        1.88122       -0.68892
H         -3.79650        0.70744       -1.99234
C         -3.23486        2.70419       -2.56925
H         -2.76299        3.60574       -2.14612
H         -2.65092        2.41442       -3.45757
H         -4.24351        2.98404       -2.90959
H         -3.01585       -1.56570       -1.21019
C         -3.15029       -2.49634        0.73472
H         -3.25699       -2.23163        1.79880
H         -2.21774       -3.06877        0.62478
H         -4.05499       -0.69022       -0.07467
H         -3.99329       -3.15332        0.47174
H         -1.25177        1.33517        1.97781
C         -3.42431        1.32774        1.97346
H         -4.26996        0.66513        1.73356
H         -3.51364        2.22580        1.34527
H         -1.95401       -0.16648        2.53461
H         -3.55120        1.65034        3.01882
