88
Cat682.ts34.5.log	Energy: -2244861.8640694
C         -0.75542        0.80267       -3.24258
H         -0.78803        0.06150       -4.04675
H         -1.66630        1.40627       -3.16257
C          0.49488        1.40071       -2.91896
H          1.41203        1.04623       -3.40201
H          0.52359        2.48111       -2.72987
H          0.43517        1.39495       -1.26074
Co        -0.06570        0.02890       -1.52408
C         -1.65593        1.96118        0.83270
C         -3.42313        0.32143       -0.75243
C         -1.79902       -0.88375        1.19641
C          1.57449       -2.04582        0.61841
C          3.23975       -0.36485       -1.00814
C          1.77326        0.80093        1.15453
P          1.58060       -0.40301       -0.21765
P         -1.68742        0.38963       -0.13005
C         -0.26632       -1.59531       -2.09491
O         -0.43770       -2.68741       -2.44152
H         -2.46062        1.98583        1.58620
H         -0.70082        1.95071        1.38315
C         -1.71561        3.19196       -0.06037
H         -2.66924        3.20099       -0.61565
H         -0.92244        3.11295       -0.82260
C         -1.55475        4.48679        0.71994
H         -2.35586        4.60694        1.46696
H         -0.59534        4.50268        1.26124
H         -1.58368        5.36501        0.05687
C         -3.67696       -0.30894       -1.97210
H         -2.84100       -0.70411       -2.55225
C         -4.49986        0.82820       -0.01348
H         -4.32004        1.30620        0.95332
C         -4.98702       -0.43072       -2.43610
H         -5.18081       -0.93059       -3.38843
C         -5.81552        0.72648       -0.46973
C         -6.95939        1.28646        0.32576
H         -6.62503        1.65957        1.30400
H         -7.44160        2.12309       -0.20553
H         -7.73562        0.52522        0.50085
C         -6.04433        0.08592       -1.69582
H         -7.06797       -0.00854       -2.06993
C         -1.60564       -0.61549        2.55467
H         -1.45589        0.40625        2.90514
C         -1.98367       -2.21286        0.79090
H         -2.12220       -2.43290       -0.27127
C         -1.57157       -1.66561        3.47412
H         -1.40597       -1.45111        4.53331
C         -1.95955       -3.27231        1.69840
C         -2.16450       -4.68345        1.22986
H         -3.23076       -4.96173        1.27256
H         -1.83400       -4.80841        0.18865
H         -1.61350       -5.40027        1.85620
C         -1.73872       -2.98091        3.05245
H         -1.69822       -3.79626        3.78014
H          0.68657       -2.04263        1.27299
H          1.33311       -2.76493       -0.18160
C          2.82109       -2.48860        1.36977
H          3.13152       -1.71001        2.08644
H          3.65799       -2.58878        0.65996
C          2.59951       -3.80208        2.10527
H          1.78872       -3.71077        2.84626
H          2.31341       -4.60462        1.40667
H          3.50735       -4.12769        2.63578
C          3.33739       -0.78635       -2.33671
H          2.42724       -1.07037       -2.87179
C          4.39950        0.02312       -0.32599
H          4.32723        0.35972        0.71186
C          4.58257       -0.83352       -2.96159
H          4.65784       -1.16822       -3.99920
C          5.65256       -0.00585       -0.94385
C          6.88937        0.42199       -0.20753
H          7.35610        1.29687       -0.68806
H          6.66403        0.69106        0.83385
H          7.64455       -0.37972       -0.19471
C          5.72742       -0.44381       -2.27306
H          6.69912       -0.47410       -2.77461
C          1.50642        0.48590        2.48936
H          1.25623       -0.53460        2.78014
C          2.07092        2.12980        0.82093
H          2.27017        2.38431       -0.22481
C          1.52332        1.48939        3.45924
H          1.29889        1.23860        4.49907
C          2.10408        3.14264        1.78081
C          2.45289        4.55168        1.39789
H          3.54210        4.71576        1.45233
H          2.13973        4.77736        0.36831
H          1.97836        5.28215        2.06909
C          1.81485        2.80391        3.11051
H          1.81777        3.58330        3.87750
