84
Cat601.ts34.5.log	Energy: -4301162.4556601
C          0.08293       -3.91102       -1.29937
H         -0.81738       -4.10987       -1.88692
H          1.02377       -4.23977       -1.74852
C         -0.00775       -3.77885        0.09093
H         -0.97858       -3.90617        0.58024
H          0.85606       -4.04505        0.70860
H         -0.03676       -2.11972        0.63522
Co         0.20314       -1.91705       -0.80961
O          2.20913       -0.74747        1.45496
O          3.30249       -2.20621       -0.21553
O          2.54703        0.17354       -0.91907
O         -2.45280       -0.66429       -1.95486
O         -2.66968       -1.79909        0.38806
O         -1.79877        0.48564        0.20964
P         -1.61356       -0.97476       -0.56216
P          2.01411       -1.18886       -0.14569
C          0.45176       -1.61526       -2.50620
O          0.62563       -1.40564       -3.61966
C          1.21781       -0.06050        2.10540
C          0.33387       -0.75962        2.92789
H          0.45318       -1.83794        3.04559
C          1.10353        1.32090        1.95911
H          1.79569        1.85852        1.30984
C         -0.69042       -0.08221        3.58041
H         -1.39867       -0.61926        4.21312
C          0.08677        2.00469        2.61793
H         -0.02378        3.08243        2.49552
C         -0.81724        1.29516        3.40437
Cl        -2.14843        2.13146        4.14087
C          4.59323       -2.03827        0.23350
C          4.88539       -1.99107        1.59515
H          4.07909       -2.08458        2.32153
C          5.61251       -1.94630       -0.71281
H          5.36020       -2.00339       -1.77236
C          6.19845       -1.78344        2.00859
H          6.44246       -1.72557        3.07052
C          6.92307       -1.73429       -0.30295
H          7.72464       -1.62147       -1.03418
C          7.20806       -1.63750        1.05908
Cl         8.83190       -1.32613        1.57390
C          3.81489        0.69712       -0.96904
C          4.39286        0.85285       -2.22737
H          3.81794        0.56379       -3.10930
C          4.51037        1.07224        0.18118
H          4.05297        0.94436        1.16189
C          5.69161        1.33865       -2.33937
H          6.16269        1.45129       -3.31706
C          5.81360        1.54505        0.07221
H          6.38495        1.80436        0.96451
C          6.40333        1.66434       -1.18563
Cl         8.04289        2.20450       -1.31374
C         -3.80757       -0.47964       -2.07178
C         -4.45598        0.61948       -1.50822
H         -3.88310        1.38250       -0.98306
C         -4.53144       -1.43625       -2.78189
H         -3.99638       -2.27301       -3.23459
C         -5.84029        0.72101       -1.59439
H         -6.36392        1.55691       -1.12864
C         -5.91477       -1.33027       -2.88163
H         -6.49495       -2.08053       -3.42109
C         -6.56539       -0.26281       -2.26468
Cl        -8.29360       -0.16606       -2.31908
C         -3.88075       -1.40299        0.91334
C         -5.03260       -2.05672        0.48102
H         -4.94794       -2.84462       -0.26789
C         -3.95749       -0.40732        1.88560
H         -3.04937        0.07810        2.23539
C         -6.27552       -1.67225        0.97071
H         -7.18763       -2.15049        0.61109
C         -5.19953       -0.02361        2.38210
H         -5.26850        0.76321        3.13491
C         -6.35474       -0.64464        1.91032
Cl        -7.90370       -0.13736        2.49681
C         -1.37635        1.70477       -0.22881
C         -2.04355        2.81577        0.29125
H         -2.85725        2.66072        1.00248
C         -0.31356        1.87667       -1.11571
H          0.23278        1.01470       -1.49567
C         -1.64376        4.09945       -0.06412
H         -2.15546        4.97297        0.34298
C          0.08722        3.16124       -1.47106
H          0.92611        3.30324       -2.15420
C         -0.57617        4.26873       -0.94585
Cl        -0.07073        5.86578       -1.38737
