60
Cat614.ts34.5.log	Energy: -2045230.4347616
C         -0.76487       -3.74734       -0.35907
H         -0.36277       -4.49468        0.33021
H         -1.85382       -3.65282       -0.34066
C         -0.04988       -3.46372       -1.54643
H          0.91357       -3.94888       -1.73195
H         -0.61269       -3.28003       -2.46773
H         -0.00438       -1.74634       -1.60517
Co         0.17491       -1.96779       -0.15039
C         -1.92799        0.58978       -0.92880
O         -2.93021       -1.61056        0.42265
O         -1.53089        0.18091        1.62064
C          1.99148        0.60957        0.99250
O          3.15067       -0.90345       -0.88576
O          1.30603        0.71817       -1.50988
P          1.62492       -0.48563       -0.42837
P         -1.52751       -0.76752        0.25367
C          0.87252       -2.55004        1.32938
O          1.31254       -2.93573        2.32520
H         -2.03298        0.07179       -1.89543
H         -0.98930        1.16450       -0.99196
C         -3.10676        1.47343       -0.66414
C         -3.07616        2.43606        0.35412
H         -2.17472        2.53795        0.96075
C         -4.27301        1.35213       -1.42942
H         -4.30870        0.61298       -2.23504
C         -4.18692        3.23594        0.60974
H         -4.14531        3.97862        1.41048
C         -5.38521        2.15232       -1.17618
H         -6.28504        2.04019       -1.78615
C         -5.34789        3.09543       -0.15069
H         -6.21802        3.72463        0.05098
C         -4.14108       -1.09739        0.94257
H         -3.98265       -0.16693        1.50818
H         -4.85464       -0.89365        0.13070
H         -4.56982       -1.85785        1.61314
C         -1.22552       -0.41571        2.86111
H         -1.75999       -1.37053        2.99825
H         -0.14566       -0.60728        2.96465
H         -1.54117        0.28262        3.64899
H          2.29241       -0.07082        1.80494
H          1.01856        1.04192        1.27566
C          3.02291        1.66434        0.74180
C          2.64908        2.93252        0.28347
H          1.59035        3.15282        0.12634
C          4.38307        1.39040        0.92257
H          4.68749        0.39918        1.26719
C          3.60961        3.90611        0.02140
H          3.29950        4.89262       -0.33205
C          5.34550        2.36235        0.66099
H          6.40324        2.13238        0.81116
C          4.96212        3.62452        0.20977
H          5.71647        4.38840        0.00639
C          3.49384       -2.21758       -1.25584
H          2.75558       -2.93918       -0.86984
H          3.54344       -2.31075       -2.35370
H          4.48407       -2.44868       -0.83693
C          1.27279        0.43248       -2.88422
H          2.27301        0.14998       -3.25208
H          0.56413       -0.38494       -3.11317
H          0.94502        1.34209       -3.40560
