48
Cat668.ts34.5.log	Energy: -1665350.9514312
C          1.59133        2.34067       -0.78337
H          1.25988        3.34765       -0.51400
H          2.63721        2.14705       -0.51719
C          1.08233        1.75504       -1.98474
H          0.30258        2.28139       -2.54644
H          1.78899        1.24701       -2.65367
H          0.78197        0.24081       -1.52559
Co         0.24906        0.93861       -0.31815
C          2.54172       -1.54510        0.52146
C          2.55034        0.78589        2.16554
C          0.49248       -1.11079        2.41394
C         -2.80278       -0.37330        0.39890
C         -2.25692        0.16348       -2.37836
C         -1.05998       -2.08387       -1.13006
P         -1.41338       -0.30665       -0.81578
P          1.41381       -0.19717        1.10451
C         -0.68229        2.06031        0.61976
O         -1.28771        2.78722        1.28649
H          3.07492       -1.98457        1.38421
H          1.88850       -2.33618        0.11301
C          3.52333       -1.09113       -0.54948
H          4.18816       -0.31267       -0.13684
H          2.95567       -0.60262       -1.35946
C          4.36215       -2.22684       -1.11413
H          4.95817       -2.71613       -0.32706
H          3.72574       -3.00089       -1.57286
H          5.06013       -1.86865       -1.88629
H          3.27494        1.32435        1.53907
H          1.95733        1.53922        2.70481
H          3.09258        0.15793        2.89041
H          1.16524       -1.61002        3.12971
H         -0.14739       -0.39958        2.95718
H         -0.15899       -1.86936        1.95537
H         -2.34306       -0.67206        1.35667
H         -3.11221        0.67606        0.54398
C         -4.00874       -1.24890        0.08950
H         -3.69015       -2.29781       -0.03279
H         -4.44929       -0.95129       -0.87696
C         -5.07478       -1.17106        1.17293
H         -4.67671       -1.49628        2.14739
H         -5.44152       -0.13972        1.29655
H         -5.94031       -1.80830        0.93564
H         -2.66607        1.17807       -2.26622
H         -1.50754        0.19029       -3.18261
H         -3.06377       -0.52994       -2.66067
H         -0.26753       -2.14972       -1.88947
H         -0.68364       -2.55373       -0.20960
H         -1.94234       -2.63980       -1.48049
