108
Cat617.ts34.5.log	Energy: -2346491.9754184
C         -0.89412       -1.55751       -2.76272
H         -0.39737       -2.50526       -2.98900
H         -1.98856       -1.61511       -2.80868
C         -0.24954       -0.34903       -3.12069
H          0.73557       -0.38131       -3.59372
H         -0.86109        0.48153       -3.49334
H         -0.19964        0.61592       -1.72309
Co        -0.09558       -0.72685       -1.10185
C         -2.82486        1.15183       -1.26402
C         -3.35473       -1.46824       -0.16420
C         -2.11504        0.60327        1.50358
C          1.98262       -0.17891        1.51215
C          3.29534       -0.71376       -1.04889
C          1.93418        1.94934       -0.56342
P          1.76536        0.10078       -0.34349
P         -2.00679       -0.15635       -0.19298
C          0.36731       -2.24873       -0.43654
O          0.73835       -3.23246        0.05461
H         -2.69830        0.77153       -2.28915
H         -2.17504        2.03666       -1.18392
C         -4.25780        1.49784       -1.02022
C         -4.63219        2.40789       -0.02120
H         -3.85912        2.92227        0.55489
C         -5.27381        0.88541       -1.76682
H         -5.00310        0.19380       -2.56954
C         -5.97433        2.66165        0.25127
H         -6.24213        3.37027        1.03892
C         -6.61690        1.13511       -1.49606
H         -7.39058        0.63821       -2.08654
C         -6.97379        2.01737       -0.47729
H         -8.02652        2.21241       -0.26041
H         -3.75793       -1.40807       -1.19338
C         -4.52926       -1.23426        0.79209
H         -4.94902       -0.22697        0.67212
H         -4.17342       -1.30478        1.83383
C         -5.62311       -2.27721        0.58344
H         -6.45252       -2.09382        1.28603
H         -6.04504       -2.15634       -0.43096
C         -5.08309       -3.69237        0.74676
H         -5.87596       -4.43500        0.55948
H         -4.76316       -3.83719        1.79494
C         -3.89534       -3.93428       -0.17654
H         -4.24349       -3.90750       -1.22558
H         -3.47744       -4.94146       -0.01605
C         -2.80304       -2.88485        0.00376
H         -2.34383       -2.99218        1.00247
H         -1.99537       -3.05359       -0.72038
H         -3.17439        0.85111        1.69196
C         -1.29297        1.88815        1.59261
H         -1.63585        2.62825        0.85223
H         -0.25219        1.64990        1.32034
C         -1.33140        2.49849        2.98958
H         -0.70407        3.40476        3.02169
H         -2.36295        2.82673        3.21281
C         -0.88279        1.49956        4.04956
H         -0.96126        1.94340        5.05519
H          0.18640        1.26406        3.89892
C         -1.69269        0.21135        3.96851
H         -2.74283        0.42457        4.23905
H         -1.32485       -0.52131        4.70504
C         -1.65044       -0.39261        2.56871
H         -0.62153       -0.70651        2.33003
H         -2.25929       -1.30800        2.53665
H          1.26759       -0.98390        1.72586
H          1.58853        0.72036        2.00669
C          3.31343       -0.56577        2.08343
C          4.15692        0.35801        2.71334
H          3.83899        1.39814        2.81257
C          3.73563       -1.90128        2.00864
H          3.06993       -2.64678        1.56372
C          5.39996       -0.02746        3.21061
H          6.04188        0.71235        3.69519
C          4.98032       -2.28839        2.49897
H          5.28993       -3.33364        2.42311
C          5.82352       -1.35032        3.09330
H          6.80049       -1.65234        3.47768
H          3.31642       -1.65084       -0.46204
C          4.64479       -0.02280       -0.84638
H          4.78825        0.26531        0.20317
H          4.67284        0.90653       -1.44091
C          5.79069       -0.92818       -1.29151
H          6.75340       -0.40965       -1.15214
H          5.81757       -1.81374       -0.63167
C          5.62549       -1.37350       -2.73912
H          6.44044       -2.05658       -3.02948
H          5.70925       -0.49162       -3.40068
C          4.27012       -2.03512       -2.95871
H          4.22938       -2.97956       -2.38630
H          4.13984       -2.30923       -4.01841
C          3.12162       -1.13898       -2.50782
H          3.07824       -0.24580       -3.15610
H          2.15803       -1.65695       -2.61781
H          0.91635        2.28467       -0.29339
C          2.13423        2.31879       -2.03611
H          1.40294        1.78527       -2.66095
H          3.13280        1.98744       -2.36714
C          2.01485        3.82406       -2.25049
H          2.19006        4.06819       -3.31084
H          0.97969        4.13935       -2.02540
C          2.98122        4.59181       -1.35704
H          2.85911        5.67801       -1.49768
H          4.01816        4.35408       -1.65677
C          2.78637        4.21965        0.10760
H          1.78413        4.55194        0.43498
H          3.51245        4.75325        0.74239
C          2.90720        2.71371        0.33304
H          3.94275        2.39414        0.13794
H          2.70431        2.49065        1.39050
