92
Cat677.ts34.5.log	Energy: -2433524.7570694
C         -0.70079       -3.22342       -1.18261
H         -0.72695       -4.09427       -0.52042
H         -1.60762       -3.10119       -1.78542
C          0.54939       -2.83213       -1.74195
H          1.46994       -3.33733       -1.42951
H          0.58080       -2.54839       -2.80149
H          0.45896       -1.18670       -1.59103
Co        -0.03376       -1.57577       -0.25296
C         -1.65094        0.92915       -1.96744
C         -3.39511       -0.81659       -0.48121
C         -1.78421        1.04295        0.88701
C          1.54520        0.46051        1.97225
C          3.25945       -1.05667        0.22626
C          1.79409        1.15122       -0.83257
P          1.59846       -0.28514        0.28726
P         -1.67293       -0.17239       -0.48846
C         -0.22767       -2.29396        1.31278
O         -0.39936       -2.74678        2.36523
H         -2.46849        1.66844       -1.92269
H         -0.70529        1.49184       -1.90248
C         -1.69227        0.15961       -3.27914
H         -2.63587       -0.40868       -3.34636
H         -0.88540       -0.59211       -3.27160
C         -1.54120        1.06731       -4.48973
H         -2.35754        1.80597       -4.54054
H         -0.59251        1.62645       -4.44741
H         -1.55350        0.49389       -5.42931
C         -4.49582       -0.04308       -0.88500
H         -4.34664        0.97591       -1.25051
C         -3.64073       -2.10126        0.00342
H         -2.79548       -2.71362        0.32423
C         -5.78578       -0.54228       -0.81794
H         -6.64521        0.05296       -1.13263
C         -4.93543       -2.61568        0.09008
H         -5.08260       -3.62344        0.47914
C         -6.01823       -1.83681       -0.32771
O         -7.30421       -2.23797       -0.29594
C         -7.59882       -3.51623        0.19232
H         -7.28439       -3.63712        1.24409
H         -8.68836       -3.63327        0.13231
H         -7.12128       -4.30757       -0.41227
C         -1.98996        0.54518        2.18717
H         -2.16893       -0.52301        2.33434
C         -1.55427        2.41065        0.74378
H         -1.39855        2.84292       -0.24553
C         -1.93707        1.37510        3.29242
H         -2.08443        0.98739        4.30211
C         -1.48144        3.26083        1.85285
H         -1.28374        4.32192        1.69652
C         -1.65937        2.74287        3.13754
O         -1.58016        3.46799        4.27234
C         -1.28069        4.83088        4.17868
H         -2.04872        5.38391        3.60910
H         -1.25253        5.21977        5.20449
H         -0.29708        5.00324        3.70548
H          0.64442        1.09583        1.98714
H          1.30754       -0.38204        2.64237
C          2.76161        1.21738        2.48356
H          3.06736        1.98609        1.75420
H          3.61700        0.52706        2.56225
C          2.49119        1.86907        3.83222
H          1.64759        2.57641        3.77266
H          2.22425        1.11552        4.59015
H          3.37053        2.41891        4.20137
C          4.43372       -0.34072       -0.05695
H          4.37606        0.72370       -0.29785
C          3.36843       -2.41822        0.51352
H          2.45566       -2.98577        0.71570
C          5.66980       -0.96725       -0.04429
H          6.58803       -0.42064       -0.26780
C          4.60602       -3.06024        0.54200
H          4.64952       -4.12471        0.77357
C          5.76803       -2.33357        0.25941
O          7.00904       -2.85704        0.24858
C          7.17109       -4.21606        0.54322
H          6.64093       -4.85973       -0.18082
H          8.24658       -4.42546        0.48223
H          6.81703       -4.46124        1.56013
C          2.11164        0.90257       -2.18068
H          2.35100       -0.11616       -2.49799
C          1.49560        2.46233       -0.46581
H          1.23737        2.69913        0.56696
C          2.11258        1.91825       -3.11942
H          2.35561        1.72653       -4.16624
C          1.48088        3.49929       -1.40436
H          1.22949        4.50815       -1.07592
C          1.78077        3.22980       -2.74176
O          1.77514        4.14745       -3.72777
C          1.42450        5.46659       -3.41803
H          2.12440        5.91871       -2.69313
H          1.47066        6.03397       -4.35609
H          0.40006        5.53326       -3.01043
