100
Cat635.ts34.5.log	Energy: -2624672.3853830
C         -0.64267       -2.48185       -2.59194
H         -0.14826       -3.45782       -2.57931
H         -1.71839       -2.53869       -2.79591
C          0.09009       -1.35054       -3.02325
H          1.14906       -1.44939       -3.28174
H         -0.42350       -0.58729       -3.61912
H         -0.11678       -0.15321       -1.81872
Co        -0.09274       -1.38041       -0.98827
C         -3.03553        0.03770       -1.71507
C         -3.14330       -1.60786        0.58764
C         -1.71113        0.89530        0.84143
C          1.81193       -0.67467        1.66536
C          3.26123       -1.13963       -0.80895
C          1.91027        1.36606       -0.42811
P          1.67090       -0.43767       -0.18624
P         -1.94590       -0.51988       -0.30020
C          0.14259       -2.80348       -0.03972
O          0.30104       -3.74238        0.61877
H         -3.06417       -0.86422       -2.34632
H         -2.45251        0.79837       -2.24771
C         -4.42565        0.50261       -1.42426
C         -4.70353        1.85008       -1.15940
H         -3.88364        2.56959       -1.17582
C         -5.48651       -0.41136       -1.39578
H         -5.28792       -1.46745       -1.59709
C         -5.99967        2.27013       -0.87497
H         -6.19532        3.32727       -0.67683
C         -6.78420        0.00508       -1.10544
H         -7.59556       -0.72695       -1.08768
C         -7.04736        1.34899       -0.84463
H         -8.06559        1.67882       -0.62369
C         -3.03962       -2.97979        0.34597
H         -2.22143       -3.32880       -0.28581
C         -4.22186       -1.15244        1.38283
O         -4.33511        0.17115        1.55982
C         -5.37667        0.69346        2.33233
H         -6.36231        0.42799        1.91539
H         -5.26287        1.78396        2.30075
H         -5.31584        0.35332        3.38128
C         -3.94557       -3.89636        0.87708
H         -3.83303       -4.96176        0.66761
C         -5.11850       -2.07197        1.94047
H         -5.94235       -1.72345        2.56324
C         -4.97907       -3.43426        1.68413
H         -5.69370       -4.13571        2.12222
C         -1.59882        0.64059        2.21196
H         -1.74192       -0.38354        2.56806
C         -1.48021        2.20843        0.39245
O         -1.48545        2.40287       -0.94497
C         -1.16158        3.66413       -1.46409
H         -1.90592        4.42788       -1.17614
H         -1.16816        3.55956       -2.55652
H         -0.15928        3.98644       -1.14142
C         -1.32536        1.65366        3.12743
H         -1.24863        1.42264        4.19205
C         -1.25032        3.23988        1.30960
H         -1.09652        4.26005        0.95867
C         -1.17317        2.96172        2.67196
H         -0.98067        3.77463        3.37632
H          1.47201       -1.71205        1.79568
H          1.02243       -0.04470        2.10312
C          3.12865       -0.49639        2.35530
C          3.42732        0.64417        3.11053
H          2.67866        1.43182        3.21684
C          4.09659       -1.50730        2.27490
H          3.87480       -2.41477        1.70797
C          4.66099        0.78434        3.74251
H          4.86882        1.68221        4.33019
C          5.33234       -1.36896        2.90136
H          6.07105       -2.17025        2.82049
C          5.62304       -0.21896        3.63504
H          6.59014       -0.11134        4.13242
C          3.20575       -2.36943       -1.46341
H          2.22157       -2.82591       -1.59582
C          4.52084       -0.52068       -0.64817
O          4.53653        0.66738       -0.02603
C          5.74922        1.30875        0.24336
H          6.40532        0.68403        0.87211
H          5.49454        2.22223        0.79473
H          6.28064        1.58350       -0.68512
C          4.35462       -3.00489       -1.93540
H          4.28066       -3.97275       -2.43521
C          5.67552       -1.14756       -1.12884
H          6.65003       -0.67625       -0.99953
C          5.58756       -2.38574       -1.76465
H          6.50035       -2.86414       -2.12895
C          1.76976        2.29327        0.59822
H          1.42765        1.96360        1.57810
C          2.28899        1.83647       -1.70370
O          2.36416        0.90446       -2.67244
C          2.85810        1.24634       -3.93440
H          2.21617        1.98947       -4.43961
H          2.86583        0.32235       -4.52607
H          3.88682        1.64234       -3.87459
C          2.06178        3.64617        0.40720
H          1.95240        4.34669        1.23765
C          2.58896        3.18549       -1.90438
H          2.90815        3.54155       -2.88421
C          2.48921        4.08460       -0.83975
H          2.73672        5.13665       -1.00197
