90
Cat773.ts34.5.log	Energy: -2869509.2696541
C          0.49532        1.05267        3.77541
H          0.25301        0.43872        4.64637
H          1.53438        1.38971        3.71834
C         -0.52150        1.84008        3.19388
H         -1.54775        1.76565        3.56674
H         -0.26623        2.83704        2.81651
H         -0.42298        1.52757        1.55065
Co        -0.12784        0.16916        2.05936
O          1.44423        0.80674       -0.74226
O          2.73147        1.25727        1.42393
O          2.32902       -1.13030        0.50681
O         -3.25654       -0.18554        1.88023
O         -2.14356        0.70538       -0.26897
O         -2.07206       -1.77755        0.37732
P         -1.86073       -0.26163        1.03328
P          1.53666        0.26175        0.83346
C          0.03494       -1.36922        2.86057
O          0.17688       -2.37935        3.38821
C          0.75995        1.92853       -1.11406
C          0.76124        3.08719       -0.33913
H          1.33913        3.11428        0.58730
C          0.06902        1.88660       -2.32666
H          0.08536        0.96758       -2.91398
C          0.04442        4.21817       -0.75357
C          0.04102        5.45236        0.10139
H         -0.41254        5.25267        1.08571
H          1.06563        5.81108        0.28649
H         -0.52377        6.26847       -0.36992
C         -0.63026        3.01015       -2.74596
H         -1.17922        2.98258       -3.68997
C         -0.65002        4.16726       -1.96443
H         -1.20839        5.04351       -2.30335
C          4.05096        1.34098        1.05670
C          4.43952        1.66416       -0.24431
H          3.68331        1.84882       -1.00683
C          5.00960        1.11417        2.04331
H          4.67707        0.87392        3.05475
C          5.79244        1.71357       -0.56554
H          6.12452        1.94223       -1.57953
C          6.36360        1.17620        1.72800
H          7.13371        0.99649        2.48019
C          6.73846        1.46397        0.42151
F          8.03330        1.50819        0.10971
C          3.43059       -1.37191       -0.28355
C          4.59672       -1.81312        0.33917
H          4.60907       -1.91862        1.42468
C          3.37837       -1.23549       -1.66940
H          2.45643       -0.89458       -2.13466
C          5.72869       -2.08963       -0.41997
H          6.65841       -2.42191        0.04470
C          4.50755       -1.51636       -2.43286
H          4.49545       -1.41727       -3.51959
C          5.67127       -1.93303       -1.79991
F          6.75514       -2.19333       -2.53079
C         -4.54811       -0.48202        1.49649
C         -4.93660       -1.79984        1.28122
H         -4.19799       -2.59358        1.39927
C         -5.45583        0.56765        1.37045
H         -5.12027        1.58949        1.55194
C         -6.24775       -2.08980        0.88526
C         -6.66518       -3.51330        0.65382
H         -5.92765       -4.05309        0.04056
H         -6.75215       -4.05836        1.60797
H         -7.63915       -3.57048        0.14814
C         -6.75785        0.28235        0.97687
H         -7.47489        1.09715        0.85316
C         -7.14986       -1.03302        0.72764
H         -8.17404       -1.24312        0.40930
C         -3.28428        0.88695       -1.00912
C         -3.69885        2.20174       -1.21562
H         -3.10431        3.00970       -0.78680
C         -3.99560       -0.17600       -1.56873
H         -3.67221       -1.20198       -1.39652
C         -4.84864        2.46004       -1.95521
H         -5.19881        3.47946       -2.12683
C         -5.15106        0.08026       -2.30068
H         -5.74081       -0.73333       -2.72564
C         -5.56736        1.39313       -2.48121
F         -6.67789        1.63575       -3.17820
C         -1.05598       -2.34441       -0.35791
C         -0.35776       -3.42595        0.17591
H         -0.60486       -3.77719        1.17844
C         -0.74983       -1.86492       -1.63232
H         -1.29692       -1.01302       -2.03677
C          0.65409       -4.03180       -0.56278
H          1.22745       -4.86908       -0.16193
C          0.25145       -2.47842       -2.37855
H          0.50562       -2.13118       -3.38168
C          0.94738       -3.54948       -1.83195
F          1.92144       -4.11777       -2.53939
