82
Cat729.ts34.5.log	Energy: -2148019.7900353
C         -1.33849        1.31117       -2.95701
H         -0.88426        1.23832       -3.94981
H         -2.36585        0.93415       -2.92552
C         -0.99978        2.42781       -2.13711
H         -0.23038        3.12245       -2.49079
H         -1.80218        2.94913       -1.60103
H         -0.86924        1.70181       -0.66791
Co        -0.12861        0.71650       -1.47828
C         -2.11746       -0.41799        1.03798
C         -2.85199       -1.38898       -1.59061
C         -0.44815       -2.45281       -0.12463
C          2.60097       -0.30448        0.17736
C          2.61571        2.48011       -0.55832
C          0.87104        1.55039        1.72121
P          1.42713        1.11945       -0.00983
P         -1.35294       -0.87455       -0.58167
C          0.91834        0.05028       -2.68775
O          1.57548       -0.36373       -3.54651
C         -1.72185       -0.95790        2.26451
H         -0.98262       -1.75749        2.28131
C         -3.06762        0.62891        1.07189
O         -3.41458        1.15398       -0.12313
C         -4.31789        2.22125       -0.17885
H         -5.30813        1.94214        0.22161
H         -4.42240        2.48455       -1.23904
H         -3.94357        3.10125        0.37285
C         -2.23198       -0.49896        3.48033
H         -1.89602       -0.94902        4.41725
C         -3.59522        1.08596        2.28174
H         -4.33007        1.89091        2.29439
C         -3.17325        0.52232        3.48580
H         -3.58918        0.89007        4.42671
H         -3.24013       -0.40237       -1.88136
C         -2.42064       -2.10701       -2.86347
H         -3.26326       -2.16188       -3.57174
H         -1.59224       -1.58169       -3.36188
H         -2.09899       -3.13994       -2.66070
C         -3.98563       -2.11063       -0.87277
H         -4.26221       -1.61541        0.06924
H         -4.88048       -2.12099       -1.51767
H         -3.74129       -3.15614       -0.64292
H          0.15685       -2.10290        0.72685
C         -1.30189       -3.63054        0.33541
H         -0.66226       -4.39455        0.80891
H         -2.07947       -3.34716        1.05830
H         -1.79787       -4.11612       -0.51804
C          0.54645       -2.89327       -1.19407
H          1.25631       -2.09679       -1.44244
H          1.12761       -3.75275       -0.82259
H          0.05005       -3.20422       -2.12427
C          3.49480       -0.50245       -0.88498
H          3.50159        0.20974       -1.71140
C          2.59632       -1.28163        1.19590
O          1.70072       -1.13903        2.20262
C          1.72055       -2.02161        3.28723
H          1.46700       -3.05301        2.98409
H          0.96013       -1.66150        3.99238
H          2.70187       -2.02808        3.79230
C          4.36444       -1.58689       -0.94614
H          5.03708       -1.69698       -1.79867
C          3.47348       -2.37156        1.14613
H          3.46315       -3.11764        1.94041
C          4.35513       -2.52369        0.08044
H          5.02734       -3.38442        0.05582
H          2.74931        2.22274       -1.62309
C          1.93709        3.84622       -0.51472
H          2.50176        4.56595       -1.12864
H          0.90751        3.81145       -0.89308
H          1.91226        4.24461        0.51041
C          3.98986        2.54682        0.10018
H          4.51030        1.58003        0.10291
H          4.62259        3.26550       -0.44682
H          3.92635        2.89611        1.13943
H          0.38192        0.61094        2.01024
C          1.98370        1.83468        2.72278
H          1.58538        1.76883        3.74870
H          2.81826        1.12486        2.64202
H          2.38625        2.85140        2.59900
C         -0.20625        2.62873        1.77615
H         -1.00335        2.44108        1.04438
H         -0.67010        2.62130        2.77517
H          0.19261        3.63724        1.59946
