104
Cat716.ts34.5.log	Energy: -2532208.0808332
C         -0.43411       -3.19749       -1.50923
H         -0.17000       -4.03265       -0.85378
H         -1.41176       -3.28948       -1.99168
C          0.58597       -2.46628       -2.13710
H          1.63660       -2.70266       -1.94567
H          0.40743       -2.05736       -3.13655
H          0.25606       -0.75313       -1.75823
Co        -0.17564       -1.41744       -0.52358
C         -1.72075        1.14530       -2.11786
O         -3.34988       -0.64684       -1.36674
O         -2.21360        0.67133        0.55412
C          0.98726        1.09194        1.35947
O          2.62552       -0.90915        1.22396
O          2.30661        0.36801       -1.00124
P          1.41664       -0.29746        0.24659
P         -1.82933       -0.16680       -0.84808
C         -0.59978       -2.14308        1.00077
O         -0.90632       -2.58511        2.01803
H         -2.69847        1.64812       -2.18133
H         -1.58356        0.59598       -3.06412
C         -0.58117        2.12047       -1.87145
H         -0.70781        2.56903       -0.87096
H          0.37468        1.57133       -1.83735
C         -0.44958        3.24900       -2.89580
H         -1.41186        3.79519       -2.92657
C          0.63444        4.22275       -2.44630
H          0.41662        4.63475       -1.44782
H          0.73336        5.06838       -3.14410
H          1.61348        3.71777       -2.39165
C         -0.16083        2.72076       -4.29607
H         -0.04463        3.54591       -5.01543
H         -0.96662        2.07082       -4.66926
H          0.77460        2.13619       -4.30375
C         -4.20514       -1.51978       -0.75238
C         -3.77791       -2.71807       -0.18465
H         -2.72094       -2.97402       -0.21915
C         -5.56309       -1.15517       -0.75088
C         -5.99759        0.12785       -1.38710
H         -5.54093        0.99369       -0.88343
H         -5.68356        0.17197       -2.44139
H         -7.08937        0.23890       -1.34149
C         -4.70190       -3.56517        0.42428
H         -4.35787       -4.49781        0.87702
C         -6.46661       -2.02547       -0.13700
H         -7.52573       -1.75373       -0.12333
C         -6.04960       -3.21856        0.45451
H         -6.77921       -3.87653        0.93167
C         -3.34939        1.39126        0.82161
C         -3.55585        2.64089        0.23031
H         -2.80592        3.03900       -0.45299
C         -4.26073        0.87686        1.75954
C         -4.02891       -0.42977        2.45514
H         -4.71901       -1.20229        2.08130
H         -3.00748       -0.79611        2.30221
H         -4.20479       -0.32551        3.53636
C         -4.69966        3.37694        0.52571
H         -4.85442        4.35028        0.05466
C         -5.40155        1.63946        2.03636
H         -6.12369        1.24897        2.75886
C         -5.63421        2.86849        1.42565
H         -6.53713        3.43542        1.66298
H         -0.00015        0.81731        1.76495
H          0.77825        1.92714        0.67248
C          1.93789        1.48394        2.48072
H          2.02464        0.63314        3.17354
H          2.95562        1.65081        2.09274
C          1.48184        2.72293        3.25636
H          0.43797        2.54946        3.57912
C          2.33714        2.90452        4.50504
H          2.28976        2.01839        5.15664
H          2.01137        3.77547        5.09468
H          3.39460        3.06193        4.23376
C          1.50300        3.98649        2.40171
H          1.14470        4.85734        2.97178
H          0.86494        3.90018        1.50833
H          2.52885        4.21239        2.06439
C          3.42431       -1.98593        0.95296
C          2.91543       -3.17624        0.43626
H          1.84503       -3.24833        0.24561
C          4.78906       -1.84261        1.25520
C          5.30136       -0.57064        1.85660
H          5.12228        0.28761        1.19139
H          4.78820       -0.34882        2.80500
H          6.38032       -0.63635        2.05078
C          3.77742       -4.23756        0.16593
H          3.37598       -5.16606       -0.24664
C          5.62761       -2.92500        0.97670
H          6.69412       -2.82897        1.19806
C          5.13900       -4.11040        0.42741
H          5.82138       -4.93655        0.21604
C          3.52972        0.97932       -0.96476
C          3.68694        2.24277       -0.39629
H          2.82308        2.74687        0.03576
C          4.59999        0.32798       -1.60137
C          4.39292       -0.98905       -2.28266
H          4.21445       -1.79675       -1.55589
H          3.51346       -0.95288       -2.94268
H          5.27284       -1.26199       -2.88032
C          4.93912        2.85367       -0.39388
H          5.05909        3.83941        0.06155
C          5.84388        0.96613       -1.58762
H          6.69003        0.47059       -2.07118
C          6.02479        2.20800       -0.98060
H          7.01059        2.67807       -0.98219
