98
Cat769.ts34.5.log	Energy: -2530383.5230436
C          1.30678       -3.39377        0.53667
H          1.30513       -4.18090       -0.22285
H          2.30064       -3.15960        0.93271
C          0.19068       -3.28680        1.41274
H         -0.69115       -3.91471        1.24555
H          0.37676       -3.09378        2.47582
H         -0.01988       -1.65709        1.45149
Co         0.17724       -1.81881       -0.00170
O          2.44243       -0.25879        1.61183
C          3.10022       -0.37719       -1.03538
C          1.18933        1.45695       -0.08561
O         -1.83129        0.24268       -1.28901
C         -3.10063       -1.99877       -0.42101
C         -2.31899        0.03814        1.41184
P         -1.70409       -0.88360       -0.04079
P          1.65849       -0.30565        0.09583
C          0.05224       -2.39363       -1.64318
O         -0.01101       -2.76170       -2.73352
C          3.78025       -0.03543        1.77655
C          4.68198       -1.07388        1.54514
H          4.29121       -2.04632        1.23832
C          4.24954        1.22047        2.16851
H          3.54243        2.03028        2.34777
C          6.06029       -0.87172        1.65133
C          7.00941       -1.98762        1.32464
H          6.75284       -2.90670        1.87366
H          6.96562       -2.22859        0.24994
H          8.04711       -1.72165        1.56985
C          5.62089        1.42298        2.30025
H          5.99262        2.40404        2.60658
C          6.52140        0.39282        2.03394
H          7.59617        0.56971        2.12602
C          3.41823       -1.59333       -1.64735
H          2.74118       -2.44205       -1.53744
C          3.96460        0.71269       -1.18508
H          3.71446        1.66662       -0.71422
C          4.59513       -1.71214       -2.38196
H          4.84027       -2.65952       -2.86816
C          5.16163        0.60177       -1.89724
C          6.10556        1.76592       -1.97365
H          5.57493        2.69647       -2.22585
H          6.59599        1.92493       -0.99914
H          6.89149        1.60403       -2.72479
C          5.46275       -0.62741       -2.49528
H          6.39153       -0.73275       -3.06336
C          1.10971        2.33118        1.00089
H          1.35630        1.97363        2.00177
C          0.83250        1.91341       -1.36013
H          0.85827        1.21906       -2.20510
C          0.73117        3.65827        0.79587
H          0.68664        4.34679        1.64352
C          0.43613        3.23455       -1.57787
C         -0.01204        3.68660       -2.93555
H          0.48184        3.11688       -3.73548
H         -1.09933        3.53229       -3.04300
H          0.18834        4.75610       -3.09514
C          0.41337        4.10875       -0.48216
H          0.12471        5.15244       -0.63570
C         -2.74250        1.25762       -1.36368
C         -2.58111        2.39117       -0.56761
H         -1.73739        2.43368        0.12230
C         -3.81334        1.16851       -2.25542
H         -3.92630        0.27753       -2.87331
C         -3.49736        3.44489       -0.62812
C         -3.32935        4.62808        0.27947
H         -3.44269        4.32703        1.33390
H         -2.32290        5.06272        0.18108
H         -4.06845        5.41304        0.06636
C         -4.71954        2.22319       -2.33154
H         -5.55832        2.16277       -3.02933
C         -4.56951        3.34938       -1.52260
H         -5.29328        4.16624       -1.58603
C         -3.38598       -2.31733       -1.75312
H         -2.83507       -1.82770       -2.55882
C         -3.78338       -2.66267        0.60463
H         -3.55679       -2.42158        1.64742
C         -4.36325       -3.26552       -2.04221
H         -4.59359       -3.50643       -3.08294
C         -4.76039       -3.62359        0.32686
C         -5.46747       -4.34475        1.43783
H         -5.00472       -5.32813        1.62496
H         -5.42446       -3.77724        2.37834
H         -6.52475       -4.52496        1.19309
C         -5.04631       -3.91025       -1.01351
H         -5.81352       -4.65198       -1.25276
C         -1.42455        0.44448        2.40734
H         -0.38373        0.11580        2.36653
C         -3.65121        0.46344        1.47294
H         -4.35320        0.15244        0.69466
C         -1.86362        1.27057        3.43773
H         -1.16529        1.58484        4.21702
C         -4.10274        1.30791        2.49139
C         -5.52111        1.79762        2.48688
H         -5.70568        2.43245        1.60477
H         -6.23402        0.96026        2.43493
H         -5.75098        2.38687        3.38557
C         -3.18809        1.70421        3.47335
H         -3.52130        2.36314        4.28029
