90
Cat744.ts34.5.log	Energy: -2869460.5875197
C         -1.07623        2.13766       -2.36523
H         -1.07225        1.96747       -3.44531
H         -2.06410        2.29417       -1.92169
C          0.04528        2.74808       -1.76733
H          0.92632        2.98643       -2.36956
H         -0.11183        3.44338       -0.93598
H          0.41203        1.75341       -0.42527
Co         0.01746        0.71999       -1.40513
C         -0.75230       -0.37189        1.75126
O         -2.45104        1.35362        0.44564
O         -2.36911       -1.15579       -0.09270
C          2.59403       -1.55183       -1.56537
O          3.23867        0.93847       -1.27615
O          2.12773       -0.19336        0.73366
P          1.89955       -0.00406       -0.90962
P         -1.33476        0.15849        0.10120
C         -0.19318       -0.38629       -2.73363
O         -0.36158       -1.15274       -3.57584
C         -0.87627       -1.68684        2.19939
H         -1.40878       -2.40373        1.57486
C         -0.08380        0.56402        2.56503
O         -0.00934        1.82051        2.08583
C          0.49679        2.84209        2.89895
H         -0.07655        2.93303        3.83735
H          0.39546        3.77252        2.32652
H          1.56182        2.68447        3.14434
C         -0.35417       -2.08158        3.43081
H         -0.46510       -3.11426        3.76763
C          0.43892        0.17387        3.80012
H          0.95824        0.89218        4.43434
C          0.30449       -1.14777        4.22375
H          0.72364       -1.44280        5.18852
C         -3.65627        1.18983        1.07377
C         -3.78048        0.61212        2.33818
H         -2.89410        0.27342        2.87325
C         -4.79317        1.63416        0.39430
H         -4.67270        2.07578       -0.59608
C         -5.04401        0.45417        2.90541
H         -5.16771       -0.00071        3.88994
C         -6.05364        1.48562        0.96011
H         -6.95399        1.81583        0.43931
C         -6.16497        0.88627        2.20965
F         -7.37337        0.72738        2.75276
C         -3.51403       -1.14223       -0.83768
C         -3.61323       -0.49660       -2.07062
H         -2.74951        0.02543       -2.47966
C         -4.61889       -1.81063       -0.30537
H         -4.52288       -2.28898        0.67062
C         -4.82386       -0.50566       -2.76025
H         -4.92717       -0.00343       -3.72377
C         -5.82549       -1.82748       -0.99508
H         -6.70432       -2.33322       -0.59148
C         -5.91603       -1.16719       -2.21532
F         -7.07583       -1.17010       -2.87467
C          3.85211       -1.61331       -2.16939
H          4.44971       -0.70326       -2.22384
C          1.81565       -2.72420       -1.48483
O          0.62986       -2.61610       -0.85518
C         -0.33538       -3.62393       -1.02860
H         -0.48851       -3.84273       -2.09794
H         -1.26741       -3.22678       -0.61052
H         -0.05490       -4.55038       -0.49887
C          4.33438       -2.80728       -2.69974
H          5.31960       -2.83850       -3.16877
C          2.29275       -3.91990       -2.02826
H          1.69201       -4.82774       -1.97515
C          3.54879       -3.95388       -2.62976
H          3.91405       -4.89562       -3.04656
C          3.30160        2.27918       -1.05273
C          3.83269        3.08395       -2.06315
H          4.14973        2.61456       -2.99598
C          2.88347        2.85261        0.15165
H          2.46822        2.21477        0.93223
C          3.94196        4.45846       -1.87861
H          4.35198        5.10629       -2.65540
C          2.98376        4.22996        0.33423
H          2.66169        4.70390        1.26326
C          3.51056        5.01775       -0.68086
F          3.60767        6.33530       -0.50221
C          3.15036       -0.92092        1.28128
C          4.43106       -0.38054        1.39804
H          4.62991        0.62423        1.02267
C          2.87910       -2.20619        1.74938
H          1.86581       -2.59474        1.64203
C          5.44552       -1.12988        1.98988
H          6.45717       -0.73415        2.09556
C          3.88908       -2.95650        2.34220
H          3.70530       -3.96452        2.71810
C          5.16188       -2.40838        2.45362
F          6.13275       -3.12618        3.02064
