92
Cat717.ts34.5.log	Energy: -3586886.9791262
C         -0.72965       -2.44775       -2.74820
H         -0.56075       -3.52789       -2.75627
H         -1.78673       -2.17301       -2.83559
C          0.25193       -1.60121       -3.33961
H          1.19383       -2.03421       -3.69089
H         -0.08555       -0.76705       -3.96743
H          0.33739       -0.38895       -2.25112
Co         0.32844       -1.53160       -1.30473
C         -2.75983       -0.07262       -1.04402
O         -1.87451       -1.47825        1.07735
O         -0.78641        0.72897        0.64733
C          2.33293       -0.51854        1.16844
O          3.45811       -1.53211       -1.15127
O          2.58785        0.81698       -1.16918
P          2.12186       -0.70266       -0.63636
P         -1.22058       -0.63404       -0.22982
C          0.64834       -3.06494       -0.54719
O          0.80526       -4.08197       -0.03082
H         -3.40632        0.42155       -0.29959
H         -3.28903       -0.98662       -1.35739
C         -2.48223        0.83866       -2.23137
H         -1.80597        1.65374       -1.92474
H         -1.92773        0.27827       -3.00369
C         -3.73917        1.43857       -2.86550
H         -4.26138        2.01704       -2.07958
C         -3.35762        2.40294       -3.98203
H         -2.71874        3.21823       -3.61123
H         -4.24978        2.85770       -4.43947
H         -2.80763        1.87695       -4.78074
C         -4.69506        0.36405       -3.37147
H         -5.57896        0.81493       -3.84792
H         -5.05643       -0.28906       -2.56291
H         -4.20152       -0.27415       -4.12427
C         -2.98746       -2.25883        0.98497
C         -2.93029       -3.51622        0.37907
H         -1.98070       -3.87765       -0.01804
C         -4.18873       -1.79627        1.52645
H         -4.20985       -0.81430        2.00400
C         -4.07668       -4.30199        0.30092
H         -4.04440       -5.28579       -0.16986
C         -5.33469       -2.58207        1.45526
H         -6.27851       -2.23085        1.87539
C         -5.27482       -3.83037        0.83592
Cl        -6.70264       -4.80749        0.73655
C         -1.63426        1.42046        1.46624
C         -1.82679        1.00318        2.78515
H         -1.33007        0.09618        3.13087
C         -2.27272        2.57030        0.99687
H         -2.11290        2.89141       -0.03310
C         -2.65475        1.73279        3.63271
H         -2.81147        1.41594        4.66505
C         -3.10129        3.30316        1.84224
H         -3.60280        4.20362        1.48425
C         -3.28995        2.88015        3.15719
Cl        -4.32182        3.78839        4.21105
H          2.32925       -1.54634        1.57253
H          1.35629       -0.08952        1.44972
C          3.47266        0.31263        1.74445
H          4.41351       -0.25284        1.68435
H          3.62636        1.21635        1.13013
C          3.24135        0.72928        3.20135
H          2.95975       -0.17933        3.76655
C          4.53330        1.27258        3.80059
H          5.34401        0.52930        3.75087
H          4.39950        1.55992        4.85492
H          4.87051        2.16774        3.25171
C          2.11065        1.74297        3.34398
H          1.91531        1.97667        4.40167
H          1.16333        1.38870        2.90981
H          2.37545        2.69016        2.84374
C          4.72840       -1.37226       -0.66790
C          5.25765       -2.37023        0.15008
H          4.64572       -3.24476        0.37963
C          5.48979       -0.25104       -0.99837
H          5.05713        0.51403       -1.64337
C          6.54042       -2.23386        0.67154
H          6.96430       -3.00235        1.31980
C          6.77171       -0.11076       -0.47625
H          7.37603        0.76588       -0.71474
C          7.28837       -1.09750        0.36342
Cl         8.87950       -0.91423        1.02419
C          1.72164        1.82428       -1.47176
C          1.31136        2.01248       -2.79250
H          1.67808        1.33344       -3.56417
C          1.28586        2.69473       -0.47288
H          1.60892        2.53698        0.55608
C          0.45222        3.05981       -3.11418
H          0.11881        3.21215       -4.14171
C          0.43672        3.74830       -0.78878
H          0.09146        4.43338       -0.01327
C          0.01307        3.91653       -2.10607
Cl        -1.08690        5.20514       -2.48352
