84
Cat720.ts34.5.log	Energy: -1961144.5919820
C         -1.70539        2.70949        1.46989
H         -1.59825        3.72945        1.08988
H         -2.74374        2.44016        1.69558
C         -0.66843        2.18125        2.29307
H          0.23192        2.78115        2.46980
H         -0.95569        1.60574        3.18285
H         -0.40599        0.69262        1.69572
Co        -0.61767        1.40515        0.40779
C         -2.43424       -1.35633        1.26376
C         -3.81545        0.61000       -0.31939
C         -1.92610       -1.18253       -1.53581
C          1.57301       -0.71304       -1.05822
C          2.54993        1.97395       -0.66054
C          2.27814        0.19984        1.62915
P          1.40352        0.73128        0.08319
P         -2.12224       -0.09127       -0.05140
C         -0.63280        2.45087       -0.96412
O         -0.65441        3.13211       -1.90100
H         -3.30191       -1.99108        1.01764
H         -2.70678       -0.76780        2.15555
C         -1.20132       -2.20832        1.53868
H         -1.11367       -2.98232        0.75728
H         -0.30504       -1.56890        1.44151
C         -1.15091       -2.88157        2.91251
H         -2.09616       -3.43832        3.05640
C         -0.00111       -3.88156        2.96289
H         -0.10132       -4.65276        2.18313
H          0.05146       -4.39104        3.93752
H          0.96430       -3.37125        2.80327
C         -1.02306       -1.86042        4.03834
H         -0.99534       -2.35296        5.02253
H         -1.86020       -1.14645        4.05200
H         -0.09303       -1.27715        3.92841
H         -4.08738        1.08528        0.63854
H         -3.68087        1.44833       -1.02421
C         -4.93458       -0.30970       -0.78702
H         -5.02497       -1.17246       -0.10523
H         -4.68224       -0.73176       -1.77432
C         -6.27562        0.40431       -0.87669
H         -6.58154        0.80302        0.10386
H         -6.22652        1.25507       -1.57499
H         -7.07228       -0.27007       -1.22673
H         -1.01963       -1.78388       -1.36404
H         -2.76629       -1.89717       -1.58351
C         -1.79114       -0.41871       -2.84533
H         -1.01832        0.35951       -2.73258
H         -2.72593        0.12995       -3.05325
C         -1.45279       -1.31819       -4.02389
H         -0.49145       -1.83436       -3.86551
H         -2.22070       -2.09454       -4.17141
H         -1.37268       -0.74507       -4.96015
H          1.02977       -0.39709       -1.96572
H          0.94514       -1.49139       -0.59776
C          2.93150       -1.28120       -1.43873
H          3.61059       -0.46860       -1.74629
H          3.40053       -1.75870       -0.56085
C          2.87025       -2.31241       -2.57126
H          2.41164       -1.81181       -3.44553
C          4.27482       -2.75293       -2.96630
H          4.90065       -1.89382       -3.25431
H          4.25352       -3.45375       -3.81517
H          4.77599       -3.26343       -2.12681
C          2.00276       -3.51496       -2.21477
H          1.99860       -4.25536       -3.02951
H          0.95649       -3.23211       -2.02466
H          2.38331       -4.01807       -1.30951
H          3.56274        1.55473       -0.78045
H          2.15854        2.16641       -1.67482
C          2.59318        3.27688        0.12790
H          3.02171        3.08906        1.12834
H          1.55750        3.61030        0.30574
C          3.38512        4.36988       -0.57100
H          4.42909        4.06361       -0.74690
H          2.94061        4.61174       -1.54949
H          3.40470        5.29586        0.02378
H          1.90843        0.87154        2.42105
H          1.85762       -0.79241        1.87235
C          3.80048        0.15813        1.66675
H          4.20084        1.16925        1.48552
H          4.19110       -0.46829        0.85060
C          4.32387       -0.35898        2.99887
H          3.97372        0.26772        3.83478
H          3.97583       -1.38669        3.19200
H          5.42419       -0.36838        3.02629
