90
Cat775.ts34.5.log	Energy: -3773822.9709495
C          0.13650        2.01602        3.61090
H         -0.00447        1.55841        4.59329
H          1.11987        2.46696        3.44826
C         -0.98938        2.53351        2.93415
H         -1.99016        2.39297        3.35405
H         -0.88337        3.46387        2.36442
H         -0.84288        1.93701        1.37493
Co        -0.38458        0.74399        2.12064
O          1.11940        1.14240       -0.75263
O          2.44884        1.84493        1.32011
O          2.09671       -0.62841        0.66710
O         -3.46326        0.07407        1.94079
O         -2.31587        0.53586       -0.32376
O         -2.08155       -1.71061        0.88932
P         -2.02469       -0.07316        1.18253
P          1.26270        0.76318        0.86638
C         -0.06904       -0.56912        3.22426
O          0.17495       -1.41866        3.95728
C          0.37255        2.18657       -1.21884
C          0.35082        3.42328       -0.57581
H          0.96127        3.57496        0.31735
C         -0.36102        1.98049       -2.38831
H         -0.33518        0.99996       -2.86575
C         -0.42965        4.47179       -1.08201
C         -0.45575        5.79350       -0.37028
H          0.55736        6.21501       -0.27690
H         -1.07966        6.52547       -0.90126
H         -0.85527        5.68803        0.65130
C         -1.12014        3.02332       -2.90213
H         -1.70023        2.86812       -3.81471
C         -1.16330        4.25851       -2.25186
H         -1.76920        5.06977       -2.66319
C          3.77859        1.77166        0.99546
C          4.21933        1.96758       -0.31311
H          3.49790        2.20418       -1.09582
C          4.68809        1.48393        2.01144
H          4.31762        1.34922        3.02930
C          5.56674        1.80626       -0.61718
H          5.92187        1.91741       -1.64254
C          6.03855        1.33584        1.71338
H          6.75982        1.09110        2.49461
C          6.46732        1.47500        0.39426
Cl         8.13389        1.21403        0.00331
C          3.14985       -0.97718       -0.14586
C          4.28176       -1.50757        0.46880
H          4.30000       -1.59214        1.55598
C          3.08856       -0.87282       -1.53511
H          2.19577       -0.46534       -2.00298
C          5.37490       -1.89607       -0.29700
H          6.27494       -2.29002        0.17685
C          4.17874       -1.26625       -2.30367
H          4.14649       -1.18448       -3.39120
C          5.32159       -1.76604       -1.68315
Cl         6.68633       -2.23234       -2.64315
C         -4.70621       -0.42939        1.61005
C         -4.95995       -1.79513        1.67650
H         -4.15717       -2.46832        1.97865
C         -5.70310        0.47265        1.24439
H         -5.47342        1.53818        1.21018
C         -6.21952       -2.29284        1.32190
C         -6.49283       -3.76729        1.39554
H         -5.66395       -4.35154        0.96814
H         -6.61229       -4.09348        2.44180
H         -7.41363       -4.03356        0.85801
C         -6.95291       -0.01954        0.88770
H         -7.73464        0.67299        0.56752
C         -7.20792       -1.39052        0.91640
H         -8.19108       -1.76565        0.62141
C         -3.46344        0.47670       -1.07020
C         -4.01806        1.68569       -1.48655
H         -3.51552        2.61474       -1.21305
C         -4.05620       -0.73528       -1.42661
H         -3.61792       -1.67627       -1.09471
C         -5.19878        1.68980       -2.22155
H         -5.65312        2.62869       -2.54193
C         -5.24294       -0.73213       -2.15163
H         -5.73665       -1.67049       -2.40702
C         -5.81481        0.47936       -2.53598
Cl        -7.31534        0.48065       -3.40312
C         -0.98162       -2.34771        0.36545
C         -0.27034       -3.23212        1.17294
H         -0.58138       -3.37705        2.20818
C         -0.59942       -2.13840       -0.96042
H         -1.15978       -1.44009       -1.58318
C          0.83840       -3.89922        0.66247
H          1.41577       -4.57916        1.29041
C          0.49731       -2.81969       -1.47769
H          0.80561       -2.67269       -2.51328
C          1.21967       -3.68775       -0.66103
Cl         2.61975       -4.48633       -1.28960
