104
Cat722.ts34.5.log	Energy: -2532117.6811414
C          1.23818       -1.46183       -3.05541
H          1.00747       -1.07632       -4.05324
H          2.30501       -1.58233       -2.84743
C          0.31293       -2.32138       -2.42374
H         -0.64141       -2.56020       -2.90382
H          0.69859       -3.14396       -1.81222
H          0.24696       -1.64228       -0.77954
Co         0.24097       -0.44171       -1.61675
C          1.51531        1.64223        0.79490
C          2.12225       -1.13521        1.08760
C          3.47707        0.50475       -0.87072
C         -2.30877        1.50326       -0.50337
C         -3.04220       -1.10755       -1.36532
C         -1.60213       -0.94416        1.11374
P         -1.62761       -0.21324       -0.57799
P          1.79553        0.11778       -0.21552
C          0.02770        0.91119       -2.68137
O         -0.10098        1.82931       -3.37478
H          2.35437        1.74326        1.50306
H          0.59308        1.48340        1.37511
C          1.38655        2.88423       -0.07688
H          2.15653        2.86731       -0.86641
H          0.42052        2.86469       -0.60938
C          1.51956        4.20496        0.68511
H          2.54219        4.23642        1.10703
C          1.36932        5.38164       -0.27157
H          2.08855        5.31660       -1.10258
H          1.52821        6.34347        0.24083
H          0.35797        5.39975       -0.71139
C          0.53808        4.31589        1.84579
H          0.63917        5.28401        2.36105
H          0.69651        3.52340        2.59229
H         -0.50148        4.23656        1.48730
C          1.73940       -0.97162        2.41666
H          1.29185       -0.03006        2.73542
C          2.69711       -2.36469        0.70696
O          3.05081       -2.46663       -0.59213
C          3.63747       -3.64502       -1.06098
H          4.59802       -3.85178       -0.55699
H          3.82032       -3.49711       -2.13276
H          2.97079       -4.51580       -0.93011
C          1.91127       -1.98994        3.35613
H          1.58784       -1.83761        4.38771
C          2.88299       -3.38505        1.64142
H          3.33462       -4.33228        1.34541
C          2.48525       -3.19294        2.96618
H          2.62771       -3.99871        3.69042
C          3.61427        0.76712       -2.23325
H          2.71998        0.71348       -2.85706
C          4.62530        0.59106       -0.05458
O          4.44517        0.39400        1.26656
C          5.54926        0.28724        2.11589
H          6.23928       -0.50997        1.78864
H          5.15305        0.02889        3.10643
H          6.11006        1.23623        2.18846
C          4.84948        1.08613       -2.79930
H          4.92576        1.28946       -3.86936
C          5.87097        0.88620       -0.61788
H          6.76165        0.94175        0.00885
C          5.97645        1.13135       -1.98729
H          6.95500        1.36737       -2.41316
H         -2.22100        1.83779       -1.55142
H         -1.57649        2.08645        0.07090
C         -3.72626        1.72738       -0.00875
H         -4.40718        1.04875       -0.54562
H         -3.79679        1.45511        1.05654
C         -4.23686        3.15775       -0.20627
H         -4.17940        3.38181       -1.28835
C         -5.69936        3.25313        0.21309
H         -6.32233        2.53124       -0.33791
H         -6.10852        4.25957        0.03286
H         -5.81149        3.03556        1.28886
C         -3.39357        4.19536        0.52491
H         -3.79623        5.20997        0.38026
H         -2.35179        4.20233        0.17209
H         -3.38063        3.99516        1.60984
C         -2.95904       -1.31044       -2.74402
H         -2.05579       -0.95507       -3.24800
C         -4.20357       -1.55020       -0.69341
O         -4.28958       -1.28056        0.62179
C         -5.34791       -1.79125        1.37709
H         -6.32021       -1.37243        1.06177
H         -5.15271       -1.49955        2.41699
H         -5.39645       -2.89253        1.31986
C         -3.97442       -1.94392       -3.45945
H         -3.88194       -2.08322       -4.53836
C         -5.21142       -2.21639       -1.40048
H         -6.10287       -2.57286       -0.88365
C         -5.09314       -2.40806       -2.77660
H         -5.89339       -2.92348       -3.31370
C         -1.48827       -2.33710        1.15999
H         -1.43441       -2.88744        0.21635
C         -1.63527       -0.24683        2.33301
O         -1.65893        1.10771        2.27954
C         -1.78728        1.83944        3.46485
H         -2.71140        1.57622        4.00859
H         -1.83008        2.89660        3.17643
H         -0.92362        1.69049        4.13675
C         -1.46078       -3.03812        2.36052
H         -1.37066       -4.12601        2.35801
C         -1.62628       -0.94572        3.54684
H         -1.66566       -0.40533        4.49258
C         -1.54426       -2.33540        3.55808
H         -1.52634       -2.86429        4.51396
