98
Cat768.ts34.5.log	Energy: -2530379.4748922
C          1.74764       -1.21602       -2.56243
H          1.45348       -1.03766       -3.60106
H          2.77715       -0.92412       -2.33484
C          1.17928       -2.31318       -1.87240
H          0.40680       -2.91445       -2.36167
H          1.82686       -2.90323       -1.21361
H          0.81073       -1.64852       -0.38736
Co         0.35981       -0.53969       -1.25030
O          2.34924       -0.00136        1.26433
C          2.91656        1.71539       -0.78875
C          0.72484        2.13495        0.89978
O         -2.17677        0.32791        0.63756
C         -2.85913       -1.66354       -1.08819
C         -1.27890       -1.98765        1.34030
P         -1.43292       -0.93854       -0.17112
P          1.53845        0.75494       -0.00660
C         -0.26998        0.46236       -2.52657
O         -0.59722        1.13361       -3.40715
C          2.84264       -1.26032        1.08883
C          3.91721       -1.48547        0.22842
H          4.35769       -0.63557       -0.29943
C          2.25895       -2.31906        1.78698
H          1.41484       -2.12659        2.45015
C          4.41453       -2.77860        0.03000
C          5.53493       -3.01219       -0.94096
H          6.34835       -2.28501       -0.79781
H          5.95507       -4.02246       -0.83895
H          5.17976       -2.89988       -1.97874
C          2.75920       -3.60450        1.60258
H          2.30307       -4.43741        2.14323
C          3.82235       -3.83649        0.72919
H          4.19942       -4.85256        0.58729
C          2.88818        1.81794       -2.18429
H          2.08018        1.33025       -2.72923
C          3.95189        2.35996       -0.06845
C          4.04647        2.36193        1.42867
H          4.22028        1.35348        1.82863
H          3.11126        2.72425        1.88008
H          4.86325        3.01788        1.75915
C          3.85713        2.52908       -2.88740
H          3.80207        2.59653       -3.97621
C          4.92689        3.05089       -0.79778
H          5.73269        3.54610       -0.24884
C          4.89127        3.13957       -2.18732
H          5.66949        3.69393       -2.71772
C          0.26602        3.13346        0.02520
H          0.39365        3.00062       -1.05306
C          0.52193        2.28110        2.28831
C          0.94591        1.27889        3.32543
H          2.03798        1.27065        3.45581
H          0.66573        0.25565        3.05347
H          0.48722        1.52453        4.29383
C         -0.33480        4.29429        0.49168
H         -0.67990        5.05151       -0.21489
C         -0.09192        3.46312        2.73337
H         -0.24164        3.59246        3.80915
C         -0.50163        4.46620        1.86306
H         -0.96816        5.37258        2.25592
C         -2.74360        1.44749        0.12367
C         -3.10305        2.42537        1.05631
H         -2.87919        2.24123        2.10866
C         -3.00468        1.64185       -1.23149
H         -2.76783        0.87310       -1.96387
C         -3.69673        3.61827        0.65221
C         -4.07425        4.66660        1.65796
H         -5.16880        4.77829        1.72419
H         -3.69955        4.41640        2.66008
H         -3.66631        5.65056        1.37820
C         -3.58789        2.84175       -1.63899
H         -3.77741        3.00175       -2.70303
C         -3.92862        3.82329       -0.71582
H         -4.38429        4.75765       -1.05417
C         -2.60353       -2.00013       -2.42312
H         -1.60118       -1.80523       -2.81439
C         -4.14506       -1.88035       -0.54259
C         -4.52466       -1.51247        0.86123
H         -4.57224       -0.41969        0.98337
H         -3.79650       -1.88280        1.59517
H         -5.51121       -1.92599        1.11123
C         -3.58566       -2.55964       -3.23369
H         -3.36205       -2.81424       -4.27203
C         -5.11753       -2.44467       -1.37778
H         -6.11713       -2.61764       -0.96973
C         -4.85196       -2.78405       -2.70198
H         -5.64084       -3.22174       -3.31871
C         -1.34094       -1.35577        2.59127
H         -1.55335       -0.28839        2.62800
C         -1.02771       -3.37351        1.27986
C         -0.88809       -4.15038        0.00402
H          0.17729       -4.29026       -0.23567
H         -1.36452       -3.66222       -0.85236
H         -1.33458       -5.14950        0.11246
C         -1.15114       -2.06481        3.77267
H         -1.19820       -1.54373        4.73165
C         -0.86294       -4.07112        2.48480
H         -0.68478       -5.14933        2.43958
C         -0.91188       -3.43583        3.72017
H         -0.76994       -4.01075        4.63835
