98
Cat747.ts34.5.log	Energy: -2530341.4053297
C         -0.01184        1.55867        3.02327
H         -0.10372        1.00846        3.96453
H          0.86046        2.21939        2.97527
C         -1.19530        1.93244        2.33458
H         -2.16786        1.60236        2.71698
H         -1.25733        2.92136        1.86690
H         -0.80789        1.56333        0.74088
Co        -0.25976        0.37294        1.41872
C          1.40401        2.04007       -0.99129
C          3.14000        1.20826        1.15921
C          2.06820       -0.76345       -0.68102
C         -1.22285       -2.22315       -0.53250
C         -3.18145       -1.07924        1.26812
C         -2.57501        0.32721       -1.17159
P         -1.72957       -0.60126        0.20369
P          1.55535        0.72563        0.28946
C          0.01808       -1.04262        2.38155
O          0.18034       -1.98895        3.02676
C          1.27070        1.76964       -2.35512
H          1.37456        0.74281       -2.70687
C          1.24478        3.37780       -0.56801
O          1.31772        3.58706        0.76294
C          1.03079        4.85586        1.28334
H          1.77031        5.60866        0.95967
H          1.07187        4.75986        2.37551
H          0.02034        5.19095        0.99339
C          1.01051        2.77855       -3.28438
H          0.91337        2.53363       -4.34420
C          1.00808        4.39759       -1.49349
H          0.90425        5.43112       -1.16238
C          0.88896        4.09368       -2.85028
H          0.69511        4.89668       -3.56499
H          2.87045        2.05861        1.80016
H          3.86277        1.56852        0.41399
C          3.72055        0.08015        1.95851
C          4.87336       -0.59002        1.52930
H          5.37204       -0.26963        0.61164
C          3.10615       -0.34492        3.14355
H          2.21383        0.17494        3.49426
C          5.38619       -1.66376        2.25401
H          6.28535       -2.17290        1.89814
C          3.61231       -1.42287        3.86470
H          3.10588       -1.74586        4.77723
C          4.75314       -2.08990        3.42052
H          5.15036       -2.93716        3.98496
H          1.26283       -0.88163       -1.42130
H          1.91327       -1.59259        0.02560
C          3.41904       -0.91294       -1.32490
C          4.12195        0.13968       -1.92477
H          3.69307        1.14237       -1.93889
C          4.01536       -2.18237       -1.32287
H          3.48776       -3.01265       -0.84556
C          5.38018       -0.06851       -2.48979
H          5.91159        0.77239       -2.94253
C          5.26851       -2.39478       -1.88949
H          5.71240       -3.39317       -1.86431
C          5.96126       -1.33460       -2.47385
H          6.94935       -1.49449       -2.91190
C         -1.21775       -3.34624        0.30506
H         -1.58990       -3.25450        1.32593
C         -0.69522       -2.38509       -1.83161
O         -0.63110       -1.28382       -2.61908
C         -0.13535       -1.39061       -3.92600
H          0.92353       -1.70328       -3.93614
H         -0.21689       -0.39010       -4.36973
H         -0.72727       -2.09854       -4.53076
C         -0.74491       -4.58688       -0.11331
H         -0.76092       -5.43433        0.57439
C         -0.22743       -3.63077       -2.26258
H          0.17389       -3.74797       -3.26885
C         -0.25465       -4.72846       -1.40610
H          0.11828       -5.69335       -1.75714
H         -3.37665       -0.16315        1.84645
H         -2.77981       -1.78831        2.01048
C         -4.46933       -1.58436        0.67546
C         -4.52369       -2.51263       -0.37318
H         -3.59864       -2.89750       -0.80414
C         -5.68349       -1.12151        1.20351
H         -5.66420       -0.40010        2.02571
C         -5.74685       -2.95257       -0.87672
H         -5.76077       -3.67474       -1.69685
C         -6.90714       -1.56204        0.70483
H         -7.83674       -1.18343        1.13699
C         -6.94401       -2.48029       -0.34287
H         -7.90098       -2.82594       -0.74074
H         -3.41957       -0.28332       -1.52575
H         -1.84085        0.39326       -1.98078
C         -3.01627        1.69724       -0.75627
C         -2.19300        2.80151       -1.01113
H         -1.25181        2.65543       -1.54438
C         -4.23203        1.91225       -0.09599
H         -4.90185        1.06821        0.08210
C         -2.56369        4.07927       -0.59927
H         -1.90752        4.92447       -0.82163
C         -4.60169        3.18938        0.32235
H         -5.55496        3.33492        0.83675
C         -3.76613        4.27832        0.07835
H         -4.05790        5.27992        0.40349
