106
Cat750.ts34.5.log	Energy: -2345236.8181522
C          0.47728        1.16442       -3.10029
H          0.24626        2.19255       -3.39352
H          1.50158        0.85205       -3.33009
C         -0.56219        0.19550       -3.14348
H         -1.57895        0.50894       -3.40439
H         -0.32676       -0.80891       -3.51444
H         -0.39182       -0.62560       -1.68101
Co        -0.13796        0.76240       -1.23586
C          2.10679       -1.75185       -0.37064
C          3.28837        0.75250       -0.97160
C          1.81933        0.43508        1.46559
C         -1.48468       -1.05601        1.29121
C         -2.56379        1.57504        1.01498
C         -3.26308       -0.42593       -0.90390
P         -1.79520        0.22690        0.00659
P          1.69698        0.04496       -0.33660
C         -0.15648        2.43494       -0.80562
O         -0.13786        3.54213       -0.46167
C          2.15610       -2.55548        0.76955
H          1.94212       -2.11900        1.74582
C          2.33356       -2.37304       -1.62020
O          2.22749       -1.57441       -2.70407
C          2.36746       -2.11837       -3.98561
H          3.38121       -2.52270       -4.15228
H          2.18690       -1.29812       -4.69187
H          1.62912       -2.91813       -4.17103
C          2.46265       -3.91710        0.69993
H          2.49767       -4.51273        1.61454
C          2.64901       -3.73175       -1.69971
H          2.84177       -4.20007       -2.66516
C          2.72172       -4.49889       -0.53453
H          2.97588       -5.55921       -0.60569
H          3.40110        0.39191       -2.00471
H          4.11667        0.32128       -0.38857
C          3.29876        2.27252       -0.94074
H          2.46154        2.63674       -1.55643
H          3.09598        2.64009        0.08217
C          4.59813        2.91198       -1.43627
H          4.80665        2.49904       -2.44176
C          4.42350        4.41997       -1.57494
H          3.59182        4.66727       -2.25255
H          5.33516        4.89867       -1.96566
H          4.19923        4.87793       -0.59700
C          5.78653        2.58474       -0.53835
H          6.71023        3.05357       -0.91215
H          5.97053        1.50209       -0.46943
H          5.61459        2.96014        0.48499
H          1.04742       -0.18129        1.95404
H          1.44338        1.46756        1.54162
C          3.16337        0.28871        2.16761
H          3.68848       -0.61047        1.80450
H          3.81539        1.14023        1.90328
C          3.05656        0.20065        3.69256
H          2.43516       -0.68631        3.92486
C          4.43161       -0.01393        4.31303
H          4.92232       -0.91040        3.90251
H          4.36805       -0.13395        5.40588
H          5.09054        0.84713        4.11089
C          2.36507        1.41844        4.29507
H          2.31346        1.34379        5.39253
H          1.33641        1.53375        3.92198
H          2.91543        2.34257        4.04951
C         -1.36508       -0.73657        2.64653
H         -1.54259        0.28925        2.97402
C         -1.23011       -2.38863        0.90178
O         -1.34577       -2.65358       -0.41337
C         -1.00743       -3.92411       -0.89973
H          0.03537       -4.18443       -0.65860
H         -1.11962       -3.87655       -1.99028
H         -1.68327       -4.70315       -0.50524
C         -1.00451       -1.69097        3.59877
H         -0.91308       -1.40738        4.64924
C         -0.88726       -3.35497        1.85199
H         -0.68915       -4.38174        1.54536
C         -0.77110       -3.00151        3.19536
H         -0.49450       -3.76378        3.92772
H         -1.73704        2.07314        1.54834
H         -3.23126        1.14275        1.77646
C         -3.30188        2.59205        0.14999
H         -2.75689        2.73008       -0.79892
H         -4.29536        2.19291       -0.12372
C         -3.47973        3.96245        0.80538
H         -2.46660        4.33665        1.04149
C         -4.11762        4.93832       -0.17535
H         -3.51605        5.02795       -1.09304
H         -4.21520        5.94357        0.26331
H         -5.12746        4.60239       -0.46614
C         -4.27712        3.88340        2.10205
H         -4.39439        4.87853        2.55872
H         -3.79184        3.23412        2.84668
H         -5.28800        3.48150        1.91635
H         -2.88194       -1.21301       -1.56932
H         -3.57571        0.40799       -1.55227
C         -4.40980       -0.94420       -0.05304
H         -4.02663       -1.72212        0.62848
H         -4.79717       -0.13884        0.59766
C         -5.58011       -1.52559       -0.85132
H         -5.17009       -2.31996       -1.50376
C         -6.59502       -2.16745        0.08757
H         -6.12930       -2.94555        0.71238
H         -7.42404       -2.63146       -0.46931
H         -7.03077       -1.41441        0.76556
C         -6.24734       -0.48386       -1.74262
H         -7.09337       -0.91768       -2.29805
H         -5.54986       -0.06162       -2.48128
H         -6.64014        0.35162       -1.13818
