86
Cat761.ts34.5.log	Energy: -2336842.8830275
C         -2.16263       -2.41175       -1.92712
H         -2.01706       -3.49323       -1.99214
H         -3.18125       -2.10222       -1.67595
C         -1.35501       -1.56588       -2.72679
H         -0.56064       -1.99722       -3.34523
H         -1.81155       -0.68214       -3.18810
H         -0.86936       -0.37095       -1.65624
Co        -0.75924       -1.54421       -0.76482
O         -1.64890        1.11549        0.93043
O         -3.55770       -0.42994        0.21516
O         -2.11124       -0.95988        2.14088
O          1.86075       -0.95217        0.86673
O          2.34815       -1.36697       -1.61974
O          1.39530        0.79378       -0.90014
P          1.16690       -0.78179       -0.64238
P         -1.97743       -0.50551        0.58123
C         -0.44959       -3.07595       -0.00305
O         -0.27732       -4.08613        0.52369
C         -1.48385        2.09063        0.00148
C         -2.06982        2.03385       -1.26574
H         -2.69867        1.18176       -1.52970
C         -0.72266        3.20381        0.36885
H         -0.27327        3.23058        1.36282
C         -1.88168        3.07039       -2.18787
C         -2.47024        2.96062       -3.56467
H         -1.83831        2.32620       -4.20934
H         -3.47038        2.50274       -3.54027
H         -2.55315        3.94337       -4.04992
C         -0.55643        4.24493       -0.53528
H          0.02894        5.12118       -0.24518
C         -1.12229        4.18104       -1.80982
H         -0.97803        5.00391       -2.51437
C         -4.54009        0.16849        1.08099
H         -4.01039        0.75499        1.84966
C         -5.32766       -0.93910        1.74874
H         -4.65275       -1.57767        2.33433
H         -5.83327       -1.55908        0.99230
H         -6.09065       -0.51976        2.42212
C         -5.38931        1.09475        0.23711
H         -4.77459        1.88883       -0.21041
H         -5.87950        0.53263       -0.57300
H         -6.16950        1.56710        0.85259
C         -0.93789       -1.14106        2.94936
H         -0.05430       -1.15509        2.28673
C         -1.05407       -2.48193        3.64080
H         -1.11205       -3.29481        2.90430
H         -1.95751       -2.51106        4.26974
H         -0.17753       -2.65864        4.28184
C         -0.83002        0.02414        3.91329
H         -0.81478        0.97413        3.36137
H         -1.69449        0.03820        4.59520
H          0.08830       -0.05554        4.51444
C          2.81816       -0.09043        1.33352
C          2.41539        0.98858        2.11675
H          1.34804        1.12322        2.30064
C          4.16492       -0.29430        1.03802
H          4.45512       -1.14270        0.41747
C          3.35288        1.89061        2.62588
C          2.90006        3.07758        3.42541
H          2.52685        3.87482        2.76070
H          2.07848        2.81298        4.10759
H          3.71999        3.50194        4.02184
C          5.10450        0.60009        1.54653
H          6.16461        0.45077        1.32760
C          4.70603        1.68015        2.33304
H          5.45552        2.37287        2.72446
C          2.33559       -2.72529       -2.06651
H          1.27832       -3.03942       -2.14465
C          3.03711       -3.61039       -1.05565
H          2.55346       -3.54018       -0.07107
H          4.09137       -3.31094       -0.94629
H          3.00799       -4.66201       -1.37756
C          2.97249       -2.74754       -3.43858
H          2.42654       -2.08715       -4.12809
H          4.01656       -2.40219       -3.38519
H          2.96477       -3.76710       -3.85141
C          2.32913        1.41503       -1.80020
H          3.16308        0.71712       -1.96620
C          2.84319        2.66813       -1.12757
H          3.34577        2.42099       -0.18221
H          2.01111        3.35491       -0.91660
H          3.56418        3.17777       -1.78432
C          1.61729        1.67730       -3.11182
H          1.27059        0.73201       -3.55577
H          0.74518        2.32698       -2.94248
H          2.29220        2.16782       -3.82935
