58
Cat726.ts34.5.log	Energy: -1950837.2776062
C          0.10741       -3.46091       -0.96556
H         -0.82934       -3.81986       -1.40079
H          0.98801       -3.69688       -1.57506
C          0.23510       -3.44767        0.45084
H         -0.61562       -3.75577        1.06864
H          1.19494       -3.75127        0.88690
H          0.78888       -1.93477        0.84959
Co        -0.08170       -1.57868       -0.30660
C          2.37437        0.87340       -0.50873
C          3.20004       -1.74574       -1.24780
C          1.51290       -0.29829       -2.95773
C         -2.66695        0.33722        0.84530
C         -1.37195       -1.34349        2.75292
C         -0.13916        1.04178        1.94143
P         -1.02452       -0.39607        1.21641
P          1.68534       -0.69774       -1.17116
C         -1.26872       -1.22484       -1.50961
O         -2.01034       -0.93656       -2.34954
C          2.24538        2.08740       -1.18731
H          1.80052        2.09611       -2.18389
C          2.96126        0.89925        0.77499
O          3.04067       -0.28892        1.41665
C          3.58975       -0.34392        2.70228
H          4.64466       -0.01851        2.71266
H          3.53662       -1.39299        3.02012
H          3.02002        0.27455        3.41843
C          2.67105        3.29433       -0.63004
H          2.55268        4.22618       -1.18704
C          3.40526        2.09898        1.33443
H          3.86180        2.11362        2.32428
C          3.25293        3.29484        0.63166
H          3.59733        4.22870        1.08206
H          3.50942       -2.00652       -0.22822
H          2.95771       -2.66999       -1.79278
H          4.02654       -1.23106       -1.76044
H          2.42172        0.13924       -3.39896
H          1.28083       -1.24528       -3.46722
H          0.65555        0.37013       -3.11907
C         -3.85098       -0.09830        1.44248
H         -3.81390       -0.86423        2.21900
C         -2.75237        1.31873       -0.16394
O         -1.57817        1.71199       -0.70158
C         -1.58534        2.48631       -1.86770
H         -2.12377        1.97285       -2.68216
H         -0.53543        2.62159       -2.15475
H         -2.03395        3.48103       -1.69998
C         -5.09250        0.41142        1.05923
H         -6.00356        0.05042        1.54087
C         -3.99113        1.82822       -0.55842
H         -4.05561        2.57836       -1.34670
C         -5.15656        1.37262        0.05746
H         -6.12140        1.77666       -0.25826
H         -1.99058       -2.22333        2.52758
H         -0.40708       -1.70443        3.13761
H         -1.86366       -0.73114        3.52401
H         -0.75075        1.53998        2.70837
H          0.79424        0.67498        2.38887
H          0.11072        1.75292        1.14446
