90
Cat792.ts34.5.log	Energy: -2386709.2792429
C         -1.91965       -0.88925       -3.08171
H         -1.83333       -1.88151       -3.53458
H         -2.93784       -0.48385       -3.10139
C         -0.82638        0.01424       -3.20700
H          0.10472       -0.32645       -3.67390
H         -1.03797        1.06249       -3.45348
H         -0.71111        0.64146       -1.70538
Co        -0.92912       -0.77737       -1.33601
C         -3.31274        1.47403        0.06242
C         -3.95295       -1.22577        0.17703
C         -1.88731       -0.35603        1.84662
C          1.42262       -1.26104        1.09082
C          2.40483       -1.19583       -1.62764
C          1.59895        1.24874       -0.37667
P          1.06821       -0.49522       -0.57459
P         -2.42760       -0.17979        0.09763
C         -0.92871       -2.48866       -1.06319
O         -0.94901       -3.61533       -0.80238
H         -3.97420        1.36501       -0.81287
H         -3.96828        1.52641        0.94471
C         -2.50400        2.72959       -0.07082
C         -2.44826        3.66877        0.96771
H         -2.99565        3.48213        1.89585
C         -1.83031        3.02029       -1.26014
H         -1.89977        2.31240       -2.08764
C         -1.72589        4.84894        0.81449
H         -1.69592        5.57662        1.62945
C         -1.09467        4.19639       -1.43189
C         -0.39702        4.46686       -2.73251
H          0.17868        3.58883       -3.06085
H         -1.12150        4.70505       -3.52868
H          0.29899        5.31291       -2.64768
C         -1.04848        5.10934       -0.37436
H         -0.47806        6.03516       -0.48683
C         -4.23842       -2.13301       -0.84577
C         -4.84800       -1.11435        1.25109
C         -6.28332       -2.78590        0.26332
C         -6.00473       -1.88650        1.29398
C         -5.39760       -2.90876       -0.80372
H         -3.53667       -2.23421       -1.67448
H         -5.60368       -3.61745       -1.60948
H         -7.18953       -3.39562        0.29846
H         -6.69038       -1.79187        2.13970
H         -4.62750       -0.43028        2.07543
C         -1.50729        0.72445        2.64994
C         -1.73809       -1.65659        2.35482
C         -0.82535       -0.78310        4.41524
C         -1.21770       -1.86705        3.62701
C         -0.97588        0.51120        3.92389
H         -1.60829        1.74405        2.27693
H         -0.67852        1.36774        4.53431
H         -0.40619       -0.94958        5.41016
H         -1.10706       -2.88669        4.00380
H         -2.02502       -2.51342        1.73915
H          0.79801       -0.71186        1.81008
H          0.98985       -2.26952        1.01638
C          2.85146       -1.32257        1.52320
C          3.61971       -2.46304        1.25983
H          3.15580       -3.32215        0.76861
C          3.46831       -0.22983        2.14234
H          2.87757        0.66356        2.35738
C          4.97038       -2.49379        1.59245
H          5.56278       -3.38572        1.37430
C          4.82639       -0.23983        2.47540
C          5.45120        0.94783        3.14936
H          5.01752        1.88987        2.78228
H          5.28648        0.91521        4.23949
H          6.53759        0.98149        2.98325
C          5.57384       -1.38737        2.18656
H          6.63862       -1.41402        2.43465
C          2.05843       -2.10444       -2.63280
C          3.75950       -0.88382       -1.43372
C          4.38220       -2.38745       -3.22042
C          4.73865       -1.47539       -2.22646
C          3.04034       -2.70201       -3.42229
H          1.00222       -2.33805       -2.78709
H          2.75248       -3.41232       -4.20104
H          5.15373       -2.85179       -3.83976
H          5.78946       -1.22759       -2.05875
H          4.05365       -0.17715       -0.65512
C          1.21177        1.96951        0.76025
C          2.28363        1.92063       -1.39578
C          2.24868        3.96816       -0.11092
C          2.61067        3.26949       -1.25985
C          1.53967        3.31436        0.89612
H          0.64337        1.47642        1.55035
H          1.22619        3.85841        1.78971
H          2.50650        5.02454       -0.00472
H          3.15413        3.77573       -2.06151
H          2.57654        1.38391       -2.30081
