88
Cat705.ts34.5.log	Energy: -2244852.7719655
C          1.35219       -1.01546       -3.11601
H          1.19593       -0.40972       -4.01326
H          2.40750       -1.22879       -2.91212
C          0.36361       -1.96805       -2.75682
H         -0.56900       -2.03298       -3.32617
H          0.68488       -2.94720       -2.38223
H          0.20379       -1.72141       -1.08452
Co         0.28920       -0.32212       -1.55334
C          1.65785        1.32884        1.15538
C          2.29743       -1.44927        0.96536
C          3.53700        0.44521       -0.75191
C         -2.35829        1.31916       -0.15130
C         -2.87989       -1.30380       -1.11122
C         -1.33112       -0.98904        1.29193
P         -1.50877       -0.30469       -0.40124
P          1.87415       -0.01251       -0.09967
C         -0.00954        1.17111       -2.38125
O         -0.20123        2.17430       -2.92613
H          2.56817        1.38911        1.77609
H          0.83226        1.00061        1.80584
C          1.35141        2.68183        0.53644
H          2.13058        2.93385       -0.20275
H          0.41208        2.61781       -0.03858
C          1.25041        3.82962        1.54490
H          2.23604        3.92294        2.03899
C          0.96228        5.13870        0.81929
H          1.72073        5.34631        0.04880
H          0.94351        5.99159        1.51540
H         -0.01770        5.09709        0.31463
C          0.21109        3.57068        2.63068
H          0.14555        4.42157        3.32632
H          0.44442        2.67528        3.22629
H         -0.79046        3.43045        2.19108
C          2.54175       -2.67094        0.31955
C          2.35424       -1.40921        2.36147
C          2.89060       -3.76587        2.44276
C          2.64469       -2.56108        3.09418
C          2.84142       -3.81680        1.04783
H          2.49481       -2.71899       -0.77167
H          3.03463       -4.75726        0.52584
H          3.11965       -4.66625        3.01799
H          2.67269       -2.51203        4.18555
H          2.15590       -0.48042        2.89747
C          3.60820        1.20846       -1.92364
C          4.72443        0.10321       -0.09272
C          6.01654        1.29135       -1.75407
C          5.95602        0.52132       -0.59292
C          4.83968        1.63674       -2.41641
H          2.68648        1.46091       -2.45287
H          4.87903        2.23557       -3.32964
H          6.98303        1.61783       -2.14584
H          6.87543        0.24238       -0.07195
H          4.68561       -0.50091        0.81734
H         -2.36755        1.77667       -1.15461
H         -1.66153        1.93551        0.43966
C         -3.76157        1.31044        0.43403
H         -4.38793        0.62150       -0.15492
H         -3.74984        0.89865        1.45868
C         -4.44273        2.68208        0.45688
H         -4.48290        3.04597       -0.58716
C         -5.87502        2.54585        0.96059
H         -6.44664        1.82468        0.35597
H         -6.40648        3.50962        0.92969
H         -5.89044        2.19041        2.00462
C         -3.67132        3.70948        1.27764
H         -4.20834        4.66974        1.31700
H         -2.67432        3.91193        0.85860
H         -3.53675        3.36283        2.31676
C         -3.08236       -1.20605       -2.49346
C         -3.75021       -2.09252       -0.35057
C         -4.99953       -2.66546       -2.33999
C         -4.80007       -2.77438       -0.96464
C         -4.14124       -1.87424       -3.10338
H         -2.39201       -0.59861       -3.08593
H         -4.29092       -1.78491       -4.18214
H         -5.82387       -3.19985       -2.81840
H         -5.47040       -3.39166       -0.36133
H         -3.60984       -2.17289        0.72966
C         -0.98569       -2.34202        1.42826
C         -1.41889       -0.20216        2.44546
C         -0.85886       -2.10487        3.82701
C         -1.17916       -0.75573        3.70439
C         -0.76313       -2.89775        2.68279
H         -0.88252       -2.96523        0.53592
H         -0.49011       -3.95187        2.76605
H         -0.67299       -2.53852        4.81242
H         -1.25037       -0.12405        4.59331
H         -1.67206        0.85718        2.37411
