102
Cat789.ts34.5.log	Energy: -2390340.5936837
C          1.06767       -3.67774        0.94531
H          1.12281       -4.58245        0.33439
H          1.98549       -3.48743        1.51310
C         -0.18588       -3.29387        1.49781
H         -1.08418       -3.86928        1.25153
H         -0.21319       -2.91077        2.52505
H         -0.20984       -1.66335        1.18754
Co         0.32501       -2.13461       -0.10415
C          2.64402       -0.38966        1.74721
O          3.37093       -1.81390       -0.41864
O          2.14177        0.44530       -0.83690
C         -0.91281        0.25530       -2.12854
O         -2.56723       -1.70291       -1.52674
O         -2.00550       -0.10793        0.41384
P         -1.27798       -0.97036       -0.78460
P          2.05315       -0.93858        0.06762
C          0.59866       -2.97482       -1.60631
O          0.84059       -3.50962       -2.59746
H          2.39063       -1.24980        2.39126
H          3.74056       -0.32516        1.74437
C          2.05429        0.87856        2.29507
C          2.90654        1.86618        2.80817
H          3.98706        1.69645        2.80744
C          0.67566        1.11533        2.30209
H         -0.00696        0.36809        1.88878
C          2.39079        3.05411        3.31424
H          3.06591        3.81546        3.71285
C          0.14056        2.30621        2.81112
C         -1.34284        2.52809        2.80691
H         -1.74946        2.43333        1.78924
H         -1.85414        1.77772        3.42979
H         -1.60343        3.52354        3.19232
C          1.01448        3.27392        3.31608
H          0.61087        4.20834        3.71556
C          4.54741       -1.36628       -1.05576
H          4.86693       -2.19894       -1.70410
H          4.32141       -0.51593       -1.71961
C          5.67379       -1.01891       -0.09692
H          6.56035       -0.75937       -0.70250
H          5.42650       -0.10140        0.46677
C          6.01576       -2.13777        0.87597
H          6.33002       -3.02786        0.30326
H          5.09735       -2.43898        1.40631
C          7.09396       -1.75416        1.87537
H          8.03088       -1.47003        1.36942
H          6.78056       -0.89422        2.49004
H          7.32481       -2.58307        2.56128
C          2.98724        1.57055       -0.63562
H          2.44047        2.31379       -0.03088
H          3.88328        1.28828       -0.05951
C          3.39141        2.17055       -1.96577
H          4.10521        2.98711       -1.75598
H          3.95058        1.41817       -2.54972
C          2.23121        2.70234       -2.79386
H          1.68918        3.46674       -2.21114
H          1.50644        1.89019       -2.96078
C          2.66770        3.28409       -4.12760
H          3.37096        4.12198       -3.99177
H          3.17498        2.52710       -4.74747
H          1.80790        3.66082       -4.70158
H          0.18613        0.27990       -2.15764
H         -1.27825       -0.20893       -3.05546
C         -1.45328        1.63583       -1.94145
C         -2.59535        2.07340       -2.61658
H         -3.09537        1.40313       -3.32061
C         -0.82641        2.50630       -1.04022
H          0.05985        2.15705       -0.50415
C         -3.10267        3.34999       -2.37989
H         -4.00114        3.68381       -2.90510
C         -1.31032        3.79482       -0.80471
C         -0.58681        4.73295        0.11737
H          0.15092        4.20338        0.73594
H         -0.04951        5.50616       -0.45676
H         -1.28361        5.25696        0.78936
C         -2.46944        4.20279       -1.48014
H         -2.87086        5.20495       -1.30479
C         -2.85965       -3.07272       -1.30264
H         -3.23616       -3.46758       -2.26059
H         -1.92396       -3.60489       -1.05940
C         -3.88034       -3.28793       -0.20434
H         -3.97613       -4.37706       -0.04534
H         -3.47808       -2.87753        0.73920
C         -5.25057       -2.69276       -0.49485
H         -5.62705       -3.10856       -1.44617
H         -5.14291       -1.60958       -0.66752
C         -6.26250       -2.94499        0.61056
H         -6.43032       -4.02345        0.76218
H         -5.91660       -2.53139        1.57142
H         -7.23626       -2.48478        0.38403
C         -3.27717        0.51704        0.29457
H         -3.12953        1.60433        0.19035
H         -3.78842        0.16715       -0.61595
C         -4.10895        0.20990        1.52001
H         -4.21446       -0.88282        1.61841
H         -3.55997        0.54639        2.41490
C         -5.47977        0.86799        1.46985
H         -6.02557        0.50396        0.58118
H         -5.35531        1.95492        1.31793
C         -6.31135        0.61806        2.71738
H         -6.48294       -0.45882        2.87360
H         -5.80588        1.00413        3.61706
H         -7.29616        1.10494        2.65338
