112
Cat724.ts34.5.log	Energy: -2442067.4462065
C         -0.79600       -2.73319       -3.03467
H         -0.47424       -3.77209       -3.14889
H         -1.88186       -2.60630       -3.13374
C          0.05546       -1.69797       -3.52597
H          1.03488       -1.96387       -3.93948
H         -0.40647       -0.86808       -4.07710
H          0.04412       -0.61052       -2.32624
Co         0.10865       -1.83697       -1.49475
C         -2.74824        0.00510       -1.54881
C         -2.83199       -2.48082       -0.09154
C         -1.56537       -0.14102        1.11656
C          2.09622       -0.31316        0.85202
C          3.44013       -2.08202       -0.99273
C          2.53660        0.53899       -1.89638
P          1.95905       -0.93327       -0.87794
P         -1.66695       -1.07800       -0.52040
C          0.41736       -3.35059       -0.71839
O          0.59367       -4.35372       -0.16847
H         -3.63335        0.29510       -0.96198
H         -3.10817       -0.61633       -2.38535
C         -2.02406        1.25043       -2.05605
H         -1.26744        1.56201       -1.31980
H         -1.46154        1.00812       -2.97497
C         -2.94412        2.44264       -2.31934
H         -3.47112        2.65353       -1.37061
C         -2.12672        3.67705       -2.67714
H         -1.42014        3.93025       -1.87127
H         -2.77196        4.55406       -2.84202
H         -1.54322        3.51447       -3.59928
C         -3.98719        2.13672       -3.38740
H         -4.65123        2.99902       -3.55557
H         -4.62085        1.28121       -3.10715
H         -3.50542        1.89482       -4.35022
H         -3.02180       -2.97733       -1.05582
H         -2.22589       -3.18182        0.50269
C         -4.10321       -2.13682        0.61273
C         -4.20053       -2.23933        2.00645
H         -3.35885       -2.64047        2.57776
C         -5.21641       -1.66054       -0.09428
H         -5.16699       -1.60538       -1.18520
C         -5.36293       -1.84587        2.66646
H         -5.42528       -1.93204        3.75392
C         -6.38602       -1.25048        0.55019
C         -7.53845       -0.68895       -0.23074
H         -7.52710        0.41360       -0.20262
H         -7.49663       -0.99143       -1.28667
H         -8.50451       -1.01444        0.18257
C         -6.44471       -1.34539        1.94721
H         -7.35284       -1.03611        2.47202
H         -1.95535       -0.82982        1.88140
H         -0.49509       -0.02281        1.31103
C         -2.23867        1.19329        1.23115
C         -1.48029        2.36962        1.18154
H         -0.39320        2.31057        1.08026
C         -3.62660        1.30377        1.38023
H         -4.23004        0.39614        1.44274
C         -2.10082        3.61424        1.25838
H         -1.49558        4.52382        1.22309
C         -4.26603        2.54467        1.45206
C         -5.76171        2.62206        1.56117
H         -6.17815        1.69667        1.98421
H         -6.08071        3.46750        2.18851
H         -6.21887        2.76455        0.56705
C         -3.48473        3.70475        1.38678
H         -3.96499        4.68549        1.44470
H          1.43031        0.56430        0.90346
H          3.10922        0.07615        1.02509
C          1.69677       -1.34506        1.89362
H          0.73700       -1.79915        1.59670
H          2.41864       -2.18221        1.90422
C          1.56976       -0.78260        3.31111
H          0.85088        0.05772        3.26649
C          0.99577       -1.83645        4.24986
H          0.01965       -2.20023        3.89218
H          0.85645       -1.43856        5.26693
H          1.66793       -2.70790        4.32063
C          2.89142       -0.23393        3.83826
H          2.77479        0.17449        4.85400
H          3.28727        0.57133        3.20081
H          3.65402       -1.02993        3.88735
H          3.20362       -2.92014       -0.31850
H          3.40291       -2.48676       -2.01557
C          4.77197       -1.47594       -0.68990
C          5.60114       -1.00728       -1.71914
H          5.31041       -1.16680       -2.76117
C          5.20011       -1.29970        0.63214
H          4.58566       -1.69463        1.44526
C          6.79382       -0.35157       -1.42523
H          7.43090        0.00666       -2.23744
C          6.38564       -0.62919        0.94827
C          6.77032       -0.40137        2.38131
H          6.23350        0.46881        2.79519
H          6.51389       -1.26680        3.00993
H          7.84691       -0.20616        2.48649
C          7.17877       -0.15034       -0.10120
H          8.11336        0.37121        0.12236
H          3.49140        0.25921       -2.36319
H          1.79562        0.66011       -2.69716
C          2.69911        1.81258       -1.12595
C          1.64669        2.72659       -1.02331
H          0.71521        2.54032       -1.56317
C          3.89049        2.08081       -0.43919
H          4.72201        1.37547       -0.52138
C          1.78282        3.86970       -0.23590
H          0.95499        4.58056       -0.16703
C          4.03920        3.21399        0.36263
C          5.31528        3.45443        1.11732
H          6.08895        2.72769        0.83165
H          5.70874        4.46625        0.93351
H          5.15424        3.36439        2.20437
C          2.96444        4.10898        0.45933
H          3.06015        5.00430        1.08006
