86
Cat734.ts34.5.log	Energy: -2431737.9195266
C          0.69391        1.22566       -3.07706
H          1.69434        1.65067       -2.93567
H          0.57298        0.67652       -4.01557
C         -0.42116        1.90720       -2.53200
H         -0.25458        2.88270       -2.06083
H         -1.40374        1.82830       -3.00750
H         -0.35525        1.47125       -0.86676
Co        -0.05429        0.18453       -1.50870
C         -1.75545        0.38897        1.42828
C         -3.34956        0.46723       -0.96797
C         -2.29466       -1.97535       -0.04282
C          1.73958       -0.22205        1.47257
C          3.23477       -0.67749       -0.88819
C          2.43377        1.96557       -0.22100
P          1.74784        0.24907       -0.31112
P         -1.77600       -0.22556       -0.30612
C         -0.08000       -1.26379       -2.47075
O         -0.07138       -2.20630       -3.13839
C         -1.67873       -0.48545        2.51385
H         -1.67253       -1.56095        2.32871
C         -1.75236        1.77574        1.68854
O         -1.81531        2.58463        0.60808
C         -2.02007        3.95892        0.77607
H         -2.94698        4.16280        1.33931
H         -2.10988        4.38397       -0.23128
H         -1.17254        4.44088        1.29471
C         -1.61543       -0.01453        3.82440
H         -1.54932       -0.72195        4.65271
C         -1.70138        2.25357        3.00016
H         -1.71214        3.32554        3.19850
C         -1.63351        1.35396        4.06336
H         -1.58978        1.73668        5.08582
C         -3.56517        0.34389       -2.34478
C         -4.34035        1.05574       -0.17546
C         -5.73223        1.38654       -2.12434
C         -5.52311        1.51655       -0.75195
C         -4.75197        0.79333       -2.91922
H         -2.78682       -0.11198       -2.96328
H         -4.90898        0.68509       -3.99520
H         -6.66009        1.74767       -2.57463
H         -6.28903        1.97698       -0.12256
H         -4.19084        1.14785        0.90317
C         -1.32804       -2.98155       -0.12219
C         -3.62019       -2.32524        0.24583
C         -2.99769       -4.65649        0.37401
C         -3.96799       -3.65737        0.45442
C         -1.67810       -4.31543        0.08554
H         -0.29571       -2.70422       -0.33927
H         -0.91570       -5.09455        0.00823
H         -3.27367       -5.70244        0.52947
H         -5.00625       -3.91776        0.67439
H         -4.38894       -1.55159        0.30080
C          1.76533        0.70111        2.51827
H          1.82670        1.76584        2.28908
C          1.67930       -1.59423        1.79917
O          1.67009       -2.44808        0.75517
C          1.89793       -3.81205        0.97087
H          2.85005       -3.97917        1.50299
H          1.95627       -4.27642       -0.02192
H          1.07647       -4.28135        1.53953
C          1.73702        0.29228        3.85186
H          1.75619        1.03881        4.64816
C          1.66394       -2.01064        3.13200
H          1.63028       -3.07244        3.37738
C          1.69082       -1.06277        4.15493
H          1.67552       -1.39658        5.19529
C          3.29699       -1.09523       -2.21902
C          4.31222       -0.95875       -0.03752
C          5.47825       -2.06458       -1.84182
C          5.42462       -1.64993       -0.50989
C          4.41366       -1.78313       -2.69472
H          2.45665       -0.88630       -2.88295
H          4.44543       -2.10627       -3.73811
H          6.35077       -2.60841       -2.21240
H          6.25640       -1.86607        0.16558
H          4.27595       -0.63553        1.00626
C          1.56785        3.00770        0.14424
C          3.75189        2.28750       -0.56475
C          3.33093        4.63330       -0.14656
C          4.19376        3.61061       -0.53187
C          2.01390        4.32561        0.19429
H          0.52670        2.77595        0.37982
H          1.32447        5.12139        0.48846
H          3.67975        5.66845       -0.12013
H          5.22502        3.84016       -0.81143
H          4.44401        1.49988       -0.86691
