110
Cat753.ts34.5.log	Energy: -2628950.9961912
C          0.70529       -0.79931       -3.63924
H          0.41613       -0.15499       -4.47500
H          1.78722       -0.95870       -3.56724
C         -0.16544       -1.86818       -3.26508
H         -1.13969       -1.95987       -3.75875
H          0.26970       -2.84966       -3.04050
H         -0.11353       -1.77981       -1.59497
Co        -0.23922       -0.34745       -1.92779
C          2.99859       -0.98615       -0.93952
C          2.41375        1.81008       -1.41707
C          1.37587        0.47732        0.97535
C         -2.26956        0.89423        0.56472
C         -3.33232       -1.07954       -1.26518
C         -1.53770       -1.90035        0.90645
P         -1.74267       -0.58801       -0.40623
P          1.59086        0.22556       -0.86761
C         -1.16795        0.84597       -2.78331
O         -1.86578        1.50043       -3.43596
C          2.65502       -2.30318       -1.25672
H          1.59972       -2.52713       -1.41805
C          4.36671       -0.71514       -0.68885
O          4.70894        0.53975       -0.34476
C          6.02844        0.83546        0.01475
H          6.36115        0.22172        0.86790
H          6.03529        1.88963        0.31932
H          6.72475        0.69957       -0.83147
C          3.59820       -3.32476       -1.35539
H          3.27739       -4.33645       -1.60868
C          5.31940       -1.73623       -0.78830
H          6.37078       -1.52218       -0.59827
C          4.93605       -3.03252       -1.12503
H          5.69735       -3.81291       -1.20307
H          3.22746        2.03837       -0.72075
H          2.87249        1.55579       -2.38535
C          1.49155        2.97747       -1.56274
C          0.76851        3.18968       -2.74277
H          0.88535        2.49235       -3.57403
C          1.34021        3.89545       -0.51926
H          1.92108        3.75362        0.39570
C         -0.09224        4.27569       -2.85536
H         -0.66362        4.41903       -3.77502
C          0.49016        5.00258       -0.61660
C          0.35752        5.95753        0.53488
H         -0.08349        5.45861        1.41367
H          1.33839        6.35102        0.84490
H         -0.28272        6.81347        0.27806
C         -0.23250        5.17734       -1.80025
H         -0.90696        6.03252       -1.90017
H          0.74373        1.37503        1.06510
H          0.75150       -0.37669        1.27141
C          2.58469        0.55243        1.85063
C          3.24702       -0.61979        2.24080
H          2.87136       -1.58687        1.90188
C          3.09190        1.77723        2.29387
H          2.56864        2.69688        2.01871
C          4.38820       -0.55413        3.03282
H          4.89798       -1.47601        3.32471
C          4.23897        1.86440        3.08989
C          4.73615        3.19875        3.56794
H          4.58142        3.98225        2.81109
H          4.20095        3.51735        4.47816
H          5.80749        3.16660        3.81380
C          4.88691        0.67888        3.45192
H          5.78625        0.72261        4.07284
C         -1.89189        2.14377        0.06303
H         -1.22964        2.18125       -0.80427
C         -3.07952        0.86544        1.72626
O         -3.40126       -0.33946        2.23041
C         -4.23319       -0.42978        3.35270
H         -3.76801        0.02976        4.24247
H         -4.38773       -1.50015        3.53615
H         -5.21409        0.03761        3.16797
C         -2.33039        3.33533        0.63984
H         -2.02907        4.28585        0.19982
C         -3.50889        2.05994        2.31548
H         -4.13474        2.03638        3.20735
C         -3.14375        3.28691        1.76445
H         -3.49755        4.20939        2.23192
H         -3.45506       -0.30784       -2.03907
H         -3.08252       -2.01316       -1.79249
C         -4.57480       -1.21484       -0.44979
C         -4.96071       -2.44403        0.10087
H         -4.36723       -3.33997       -0.10220
C         -5.36681       -0.09056       -0.19732
H         -5.07144        0.87037       -0.62911
C         -6.10174       -2.53081        0.89302
H         -6.40041       -3.49459        1.31316
C         -6.51109       -0.15727        0.60344
C         -7.31768        1.08123        0.86789
H         -6.68498        1.87992        1.28760
H         -7.75667        1.47693       -0.06189
H         -8.13969        0.88798        1.57161
C         -6.87015       -1.39531        1.14728
H         -7.76471       -1.47076        1.77183
H         -1.17614       -1.38378        1.80546
H         -2.54841       -2.25114        1.15906
C         -0.63969       -3.05083        0.57703
C         -0.93278       -3.94098       -0.46415
H         -1.82181       -3.78722       -1.08010
C          0.50378       -3.28695        1.34663
H          0.73169       -2.60722        2.17318
C         -0.09833       -5.02605       -0.71763
H         -0.34020       -5.71711       -1.52895
C          1.35793       -4.36777        1.10545
C          2.60975       -4.55021        1.91091
H          2.86425       -5.61344        2.03071
H          3.46015       -4.06342        1.40307
H          2.51784       -4.10191        2.91073
C          1.03693       -5.24136        0.06170
H          1.68326       -6.09953       -0.14225
