114
Cat791.ts34.5.log	Energy: -2395791.0864887
C          1.33024       -3.67919        0.68111
H          0.95622       -4.45965        0.01187
H          2.42059       -3.68140        0.78266
C          0.53578       -3.30134        1.79187
H         -0.44977       -3.75413        1.93786
H          1.03884       -3.08482        2.74121
H          0.54487       -1.56919        1.74028
Co         0.45712       -1.89586        0.30485
C          2.33505        0.60444        1.70651
C          3.82548       -1.38814        0.21137
C          2.22802        0.69460       -1.25443
C         -1.37819        0.62258       -0.94244
C         -2.92896       -1.66010        0.07378
C         -1.57468        0.25387        1.98246
P         -1.35708       -0.70678        0.39798
P          2.17401       -0.51055        0.17675
C          0.02305       -2.47338       -1.26341
O         -0.30364       -2.85114       -2.31072
H          1.48629        0.30041        2.33400
H          3.23859        0.28470        2.24385
C          2.33034        2.09460        1.55381
C          3.47970        2.86371        1.77834
H          4.40808        2.37104        2.07948
C          1.15796        2.76147        1.18543
H          0.24900        2.17771        1.02899
C          3.44836        4.24519        1.61175
H          4.35293        4.83288        1.78655
C          1.10407        4.14748        1.00921
C         -0.18738        4.80379        0.61318
H         -0.94658        4.69141        1.40449
H         -0.05571        5.87833        0.42514
H         -0.60289        4.34948       -0.30073
C          2.27220        4.88520        1.22195
H          2.25882        5.97023        1.08889
H          3.66385       -2.09090        1.05246
C          5.11278       -0.62257        0.52386
H          5.00552       -0.01048        1.43257
H          5.34549        0.07594       -0.29364
C          6.28088       -1.59228        0.69714
H          7.20633       -1.03315        0.91234
H          6.09169       -2.23178        1.57856
C          6.46661       -2.47407       -0.53297
H          7.28772       -3.19139       -0.37138
H          6.77149       -1.84085       -1.38617
C          5.17866       -3.20627       -0.89278
H          4.93608       -3.93518       -0.09821
H          5.31236       -3.79043       -1.81774
C          4.01225       -2.23642       -1.04867
H          4.21474       -1.56714       -1.90301
H          3.08021       -2.77341       -1.28284
H          1.42015        1.39322       -0.96840
C          1.81682        0.07826       -2.59481
H          0.94502       -0.57895       -2.48176
H          2.62615       -0.57274       -2.96572
C          1.53304        1.16881       -3.62378
H          1.24972        0.71412       -4.58697
H          0.65702        1.75508       -3.28994
C          2.72678        2.10006       -3.80469
H          2.47547        2.91902       -4.49843
H          3.55185        1.53628       -4.27712
C          3.21083        2.65631       -2.47060
H          2.44648        3.33207       -2.04588
H          4.11724        3.26711       -2.61444
C          3.48553        1.53995       -1.46625
H          4.29019        0.89516       -1.85953
H          3.84785        1.96793       -0.52333
H         -1.01191        1.54641       -0.47297
H         -0.58390        0.29187       -1.62054
C         -2.61643        0.88722       -1.74217
C         -2.96003        0.02826       -2.79375
H         -2.30300       -0.81029       -3.04195
C         -3.45085        1.97975       -1.47716
H         -3.18453        2.67151       -0.67324
C         -4.13019        0.23747       -3.51943
H         -4.39348       -0.44578       -4.33067
C         -4.62439        2.21010       -2.20017
C         -5.49015        3.40104       -1.90580
H         -5.26503        3.83038       -0.91913
H         -5.33781        4.19536       -2.65533
H         -6.55804        3.13660       -1.92796
C         -4.96278        1.31253       -3.22023
H         -5.88194        1.46647       -3.79226
H         -2.87705       -1.78463       -1.02391
C         -4.26146       -0.98069        0.39151
H         -4.30441        0.02697       -0.04250
H         -4.36016       -0.86542        1.48481
C         -5.43097       -1.81493       -0.12481
H         -6.38386       -1.31910        0.12308
H         -5.37843       -1.85174       -1.22767
C         -5.40125       -3.23082        0.43738
H         -6.22915       -3.82922        0.02313
H         -5.56518       -3.18895        1.52999
C         -4.06316       -3.90618        0.15913
H         -3.95031       -4.05554       -0.92994
H         -4.03425       -4.90974        0.61416
C         -2.89027       -3.07170        0.66258
H         -2.92320       -3.01832        1.76513
H         -1.93358       -3.54571        0.40081
H         -0.54331        0.61575        2.14374
C         -1.88785       -0.66761        3.16388
H         -1.21578       -1.53898        3.14880
H         -2.91471       -1.05838        3.06321
C         -1.76404        0.08020        4.48748
H         -2.02079       -0.58881        5.32481
H         -0.70923        0.37488        4.63641
C         -2.64280        1.32549        4.50994
H         -2.50883        1.87561        5.45538
H         -3.70431        1.01942        4.47595
C         -2.34725        2.23239        3.32094
H         -1.31792        2.62606        3.40990
H         -3.01716        3.10791        3.32780
C         -2.47742        1.48672        1.99458
H         -3.52716        1.19562        1.83352
H         -2.21412        2.16594        1.17033
