118
Cat770.ts34.5.log	Energy: -3006296.9952312
C          0.81903       -3.15829       -0.42800
H          0.04691       -3.62287       -1.04555
H          1.84948       -3.40474       -0.69622
C          0.51379       -2.80313        0.89850
H         -0.49433       -2.99281        1.28444
H          1.30389       -2.87344        1.65288
H          0.59807       -1.11829        1.15869
Co         0.51240       -1.14772       -0.32063
O          3.19539       -0.00542        1.22430
C          3.43870        0.52285       -1.37121
C          1.54445        1.88554        0.25881
O         -2.00977        0.34804       -1.43875
C         -2.78110       -1.57106        0.31966
C         -1.66655        1.00474        1.23798
P         -1.43709       -0.33047       -0.01989
P          2.14508        0.18061       -0.08503
C          0.37016       -1.12085       -2.03850
O          0.25226       -1.09959       -3.18854
C          3.49465       -1.22244        1.72428
C          3.82508       -2.30084        0.89928
H          3.83082       -2.15843       -0.18356
C          3.48647       -1.38251        3.11358
H          3.23995       -0.51999        3.73388
C          4.10917       -3.55651        1.44421
C          4.38782       -4.72228        0.53980
H          4.91772       -4.40586       -0.37075
H          4.99215       -5.49150        1.04204
H          3.44483       -5.19721        0.22031
C          3.78839       -2.62611        3.65984
H          3.78502       -2.75482        4.74553
C          4.08837       -3.71052        2.83529
H          4.31388       -4.68555        3.27506
C          4.20414        1.70914       -1.35282
O          4.08157        2.48775       -0.26702
C          4.52804        3.81165       -0.29242
H          4.15807        4.27776        0.63021
H          5.63035        3.87675       -0.31263
H          4.11719        4.36244       -1.15600
C          3.68010       -0.38470       -2.42067
O          3.08746       -1.59122       -2.32774
C          3.10467       -2.46694       -3.41867
H          2.47884       -3.32257       -3.13464
H          4.12514       -2.82490       -3.64168
H          2.67376       -1.99774       -4.31841
C          4.52732       -0.05795       -3.48816
H          4.68320       -0.75675       -4.30863
C          5.05200        2.04515       -2.41600
H          5.61633        2.97698       -2.40253
C          5.18916        1.16294       -3.48040
H          5.84987        1.42116       -4.31169
C          1.51939        2.53249        1.50828
O          1.90187        1.82807        2.59349
C          2.08444        2.49226        3.80641
H          2.48010        1.75047        4.51369
H          2.81365        3.31694        3.71699
H          1.13688        2.89284        4.20722
C          1.00074        2.56461       -0.84643
O          0.98008        1.86598       -1.99740
C          0.18940        2.30490       -3.06798
H          0.20476        1.49413       -3.80638
H          0.59824        3.22204       -3.52752
H         -0.85001        2.47450       -2.74420
C          0.55623        3.88726       -0.75103
H          0.15988        4.40254       -1.62520
C          1.09543        3.86478        1.60547
H          1.08851        4.37148        2.56901
C          0.63133        4.53162        0.47719
H          0.29938        5.56915        0.56611
C         -3.29175        0.42933       -1.86202
C         -4.37671        0.60901       -1.00310
H         -4.20989        0.69187        0.07237
C         -3.49855        0.33367       -3.24203
H         -2.63025        0.17855       -3.88510
C         -5.67953        0.67921       -1.50736
C         -6.83333        0.82322       -0.55632
H         -6.65043        1.62230        0.17890
H         -7.76985        1.05155       -1.08471
H         -6.98708       -0.10851        0.01324
C         -4.79097        0.42241       -3.74674
H         -4.95536        0.35108       -4.82512
C         -5.87880        0.59003       -2.88844
H         -6.89225        0.64885       -3.29390
C         -3.64897       -1.62743        1.42938
O         -3.72679       -0.53071        2.20290
C         -4.41832       -0.56443        3.41552
H         -4.23221        0.40351        3.89933
H         -5.50559       -0.69102        3.26844
H         -4.05055       -1.37188        4.07246
C         -2.86889       -2.62910       -0.61494
O         -2.15005       -2.47139       -1.73643
C         -2.21877       -3.41323       -2.76796
H         -1.54927       -3.04537       -3.55508
H         -3.24392       -3.49644       -3.16772
H         -1.87494       -4.40949       -2.43837
C         -3.68044       -3.74673       -0.39244
H         -3.72258       -4.55672       -1.11907
C         -4.44880       -2.75311        1.67205
H         -5.09665       -2.79287        2.54670
C         -4.44493       -3.80550        0.76588
H         -5.07445       -4.67883        0.95252
C         -1.30434        0.67683        2.55834
O         -0.95689       -0.61008        2.75746
C         -0.27662       -0.97367        3.92674
H          0.05568       -2.00956        3.78610
H          0.60792       -0.33621        4.08494
H         -0.93267       -0.92405        4.81381
C         -2.08403        2.32702        0.98761
O         -2.38745        2.66065       -0.27879
C         -2.99238        3.88808       -0.55404
H         -3.22849        3.88038       -1.62606
H         -2.31814        4.73515       -0.33894
H         -3.93011        4.01749        0.01441
C         -2.18555        3.25502        2.03517
H         -2.51621        4.27247        1.83408
C         -1.36730        1.60600        3.59889
H         -1.08822        1.32401        4.61359
C         -1.82495        2.89038        3.32380
H         -1.89435        3.62486        4.13014
