98
Cat767.ts34.5.log	Energy: -2530388.1122086
C          2.01337       -2.82044       -0.95242
H          1.91894       -3.26239       -1.94832
H          3.04688       -2.61176       -0.65948
C          1.06312       -3.17238        0.03685
H          0.21224       -3.80877       -0.23089
H          1.40665       -3.31311        1.06801
H          0.61017       -1.69191        0.72712
Co         0.70704       -1.29417       -0.69807
O          2.23476        0.63928        1.52807
C          3.52515        0.66771       -0.84402
C          1.11592        2.03771       -0.37322
O         -1.87006        0.35858       -1.44803
C         -2.43573       -2.22295       -0.83604
C         -1.98825       -0.29284        1.20901
P         -1.32635       -0.84207       -0.39656
P          1.86545        0.38957       -0.11430
C          0.53999       -1.19825       -2.42309
O          0.44584       -1.13416       -3.57133
C          2.61791       -0.38910        2.33100
C          3.47099       -1.39796        1.88487
H          3.86992       -1.34826        0.87001
C          2.13373       -0.41033        3.64211
H          1.47616        0.39217        3.97996
C          3.82464       -2.46154        2.72295
C          4.71011       -3.55651        2.20270
H          5.64297       -3.14928        1.78277
H          4.97513       -4.27233        2.99307
H          4.20954       -4.11397        1.39422
C          2.49635       -1.45576        4.48375
H          2.11738       -1.47775        5.50844
C          3.32653       -2.48084        4.02903
H          3.59393       -3.30362        4.69672
C          3.88324        0.00726       -2.01957
H          3.17517       -0.68014       -2.48773
C          4.44738        1.53572       -0.24410
H          4.17791        2.05091        0.68121
C          5.13539        0.22228       -2.59547
H          5.39811       -0.29779       -3.52079
C          5.69687        1.73362       -0.81551
H          6.40831        2.41075       -0.33363
C          6.06319        1.08327       -2.00435
C          7.41620        1.31183       -2.61137
H          8.21891        1.01764       -1.91642
H          7.54513        0.73749       -3.53922
H          7.57008        2.37673       -2.84802
C          0.63200        2.32788       -1.65609
H          0.71154        1.58309       -2.45156
C          0.97568        2.99625        0.63265
H          1.34573        2.78054        1.63600
C          0.03252        3.55065       -1.92311
H         -0.34744        3.75269       -2.92815
C          0.36279        4.21963        0.35636
H          0.25680        4.95781        1.15678
C         -0.12111        4.51835       -0.92011
C         -0.82544        5.80985       -1.21166
H         -0.74758        6.51343       -0.37078
H         -0.41243        6.29950       -2.10705
H         -1.89634        5.63196       -1.40503
C         -2.92160        1.19294       -1.18810
C         -2.73802        2.27423       -0.32550
H         -1.75752        2.42136        0.12921
C         -4.15909        0.97054       -1.79065
H         -4.28654        0.12151       -2.46329
C         -3.79533        3.13318       -0.02231
C         -3.60629        4.23521        0.97928
H         -2.56120        4.57469        1.00623
H         -4.25151        5.09938        0.76318
H         -3.85766        3.87960        1.99300
C         -5.21142        1.84112       -1.51039
H         -6.18378        1.67923       -1.98228
C         -5.03675        2.90741       -0.63131
H         -5.87492        3.57437       -0.41196
C         -2.85207       -2.39003       -2.16273
H         -2.59155       -1.63322       -2.90654
C         -2.74093       -3.22175        0.09445
H         -2.41409       -3.11895        1.13295
C         -3.57961       -3.51400       -2.53669
H         -3.89929       -3.62367       -3.57704
C         -3.46615       -4.34730       -0.29015
H         -3.69818       -5.11570        0.45269
C         -3.90377       -4.51267       -1.60840
C         -4.70811       -5.71096       -2.01905
H         -4.65526       -6.51025       -1.26648
H         -5.77094       -5.44741       -2.14945
H         -4.35729       -6.12040       -2.97847
C         -3.36433       -0.31195        1.48317
H         -4.05582       -0.76710        0.77097
C         -1.12819        0.30348        2.13286
H         -0.05635        0.33090        1.93506
C         -3.85873        0.26666        2.64400
H         -4.93537        0.25091        2.83458
C         -1.63139        0.88380        3.29476
H         -0.94283        1.35290        4.00311
C         -3.00234        0.88484        3.56670
C         -3.55374        1.54184        4.79717
H         -4.24719        0.87466        5.33164
H         -2.75521        1.83515        5.49263
H         -4.12018        2.45070        4.53462
