106
Cat728.ts34.5.log	Energy: -2345228.6915531
C          0.16161        1.04989       -3.02476
H          0.38742        0.44402       -3.90712
H         -0.79988        1.56989       -3.08636
C          1.23181        1.64959       -2.31563
H          2.26366        1.46896       -2.62853
H          1.08120        2.65335       -1.90128
H          0.82981        1.27307       -0.65055
Co         0.50108        0.00923       -1.32507
C         -1.79228        2.23456       -0.48526
C         -2.90778       -0.33571       -1.45355
C         -1.91372       -0.02728        1.20998
C          1.24360       -2.27305        1.10344
C          3.51642       -1.10436       -0.17863
C          1.92933        0.42498        1.72973
P          1.76029       -0.70352        0.27104
P         -1.48080        0.40942       -0.54123
C          0.55147       -1.45550       -2.25299
O          0.56029       -2.42265       -2.88916
C         -1.14959        2.94029        0.53966
H         -0.56932        2.38307        1.27847
C         -2.48847        2.98883       -1.45093
O         -3.07186        2.30808       -2.46303
C         -3.74178        3.00535       -3.47340
H         -4.59931        3.57844       -3.07913
H         -4.11426        2.25058       -4.17781
H         -3.06803        3.69447       -4.01200
C         -1.20503        4.32714        0.64516
H         -0.69088        4.83455        1.46445
C         -2.54973        4.38545       -1.35397
H         -3.09296        4.96331       -2.10161
C         -1.91370        5.05027       -0.30903
H         -1.97022        6.13981       -0.25192
H         -3.85591        0.12697       -1.13742
H         -2.76303       -0.06982       -2.50934
C         -2.95467       -1.84956       -1.30336
H         -1.99460       -2.27798       -1.63674
H         -3.06582       -2.13027       -0.24107
C         -4.07982       -2.49536       -2.09965
H         -3.97322       -2.22297       -3.16525
H         -5.05006       -2.07470       -1.77734
C         -4.11334       -4.01151       -1.96609
H         -3.13848       -4.42072       -2.28513
H         -4.21318       -4.27689       -0.89802
C         -5.23029       -4.66689       -2.76191
H         -5.22692       -5.76124       -2.64435
H         -5.13396       -4.44827       -3.83764
H         -6.21877       -4.30062       -2.44030
H         -1.72013       -1.10646        1.31585
H         -1.15821        0.45313        1.85153
C         -3.31186        0.32157        1.69278
H         -3.51222        1.39095        1.50559
H         -4.06052       -0.23485        1.10303
C         -3.51840        0.01666        3.17037
H         -2.77983        0.58470        3.76548
H         -3.29458       -1.04938        3.35905
C         -4.92038        0.33597        3.66994
H         -5.13972        1.40023        3.47228
H         -5.65458       -0.23434        3.07340
C         -5.11902        0.03732        5.14715
H         -6.14095        0.27708        5.47827
H         -4.42218        0.62172        5.76958
H         -4.93924       -1.02754        5.36689
C          0.07739       -2.89039        0.65116
H         -0.45871       -2.40317       -0.16396
C          1.95331       -2.89499        2.15500
O          3.09245       -2.29753        2.57256
C          3.85464       -2.89249        3.58496
H          3.29455       -2.96354        4.53363
H          4.72945       -2.24745        3.73691
H          4.19975       -3.90083        3.29787
C         -0.40337       -4.07593        1.20504
H         -1.31904       -4.52881        0.81881
C          1.47640       -4.08226        2.72141
H          2.01840       -4.56260        3.53603
C          0.30189       -4.66600        2.24633
H         -0.05298       -5.59464        2.70023
H          4.13010       -1.08434        0.73509
H          3.49862       -2.15231       -0.52355
C          4.09922       -0.22046       -1.26846
H          3.45316       -0.29211       -2.15832
H          4.06159        0.83893       -0.96072
C          5.52988       -0.58875       -1.63243
H          5.56674       -1.65127       -1.93548
H          6.17197       -0.51267       -0.73535
C          6.11085        0.27384       -2.74425
H          5.46284        0.19510       -3.63497
H          6.06673        1.33440       -2.43845
C          7.53864       -0.09354       -3.11441
H          7.92901        0.54708       -3.91983
H          7.60522       -1.13820       -3.45895
H          8.21489        0.00965       -2.25021
H          0.90792        0.51111        2.13660
H          2.53419       -0.08498        2.49311
C          2.48256        1.80815        1.42453
H          3.55209        1.73629        1.16128
H          1.97969        2.21797        0.53212
C          2.30793        2.78742        2.57710
H          2.84681        2.41902        3.46901
H          1.24103        2.81448        2.86788
C          2.76738        4.19978        2.24423
H          3.83523        4.17801        1.96347
H          2.22931        4.54459        1.34334
C          2.55363        5.18907        3.37815
H          2.89479        6.19980        3.10739
H          3.10113        4.88477        4.28485
H          1.48745        5.25998        3.64947
