98
Cat740.ts34.5.log	Energy: -2530345.4518998
C          0.43717        1.11864       -3.17158
H          1.39076        1.65589       -3.11224
H          0.32869        0.49661       -4.06481
C         -0.71198        1.69783       -2.59144
H         -0.62969        2.69856       -2.15249
H         -1.70680        1.48435       -2.99453
H         -0.52655        1.33631       -0.89212
Co        -0.09183        0.07673       -1.50786
C         -1.89876        0.30697        1.34178
C         -3.41210       -0.15967       -1.06495
C         -1.99669       -2.26578        0.17074
C          1.84196       -0.12636        1.36162
C          3.33144       -0.09441       -1.02061
C          2.02414        2.28500       -0.19305
P          1.69745        0.47546       -0.37707
P         -1.76695       -0.50112       -0.30721
C          0.14281       -1.44885       -2.31062
O          0.33440       -2.45897       -2.83692
C         -1.63109       -0.38399        2.52424
H         -1.37186       -1.44345        2.47332
C         -2.21870        1.67863        1.42552
O         -2.42357        2.31251        0.25207
C         -3.13356        3.51902        0.22378
H         -4.10512        3.42327        0.73865
H         -3.30945        3.74950       -0.83446
H         -2.56446        4.34654        0.67829
C         -1.69010        0.25116        3.76476
H         -1.46822       -0.31200        4.67301
C         -2.30514        2.31384        2.66693
H         -2.57849        3.36812        2.72801
C         -2.03559        1.59577        3.83293
H         -2.09874        2.10162        4.79946
C         -3.53733       -0.38208       -2.43741
H         -2.66006       -0.70141       -3.00670
C         -4.53141        0.25901       -0.33735
H         -4.44221        0.42511        0.74028
C         -4.76792       -0.19249       -3.06482
H         -4.86312       -0.37203       -4.13864
C         -5.76788        0.46706       -0.95368
C         -6.95923        0.92545       -0.16189
H         -7.78199        0.19483       -0.21726
H         -6.70644        1.06671        0.89851
H         -7.35173        1.88047       -0.54648
C         -5.87115        0.23381       -2.33184
H         -6.83030        0.39040       -2.83399
C         -3.26081       -2.80444        0.44685
H         -4.15574       -2.18822        0.34566
C         -0.86736       -3.07634        0.29022
H          0.11745       -2.65966        0.06786
C         -3.37654       -4.13329        0.83858
H         -4.36364       -4.55408        1.04598
C         -0.97194       -4.41599        0.68825
C          0.25969       -5.26303        0.82013
H          0.00808       -6.32289        0.96674
H          0.89370       -5.18011       -0.07515
H          0.86643       -4.94086        1.68222
C         -2.24044       -4.93320        0.95944
H         -2.34196       -5.97942        1.26188
C          1.67302        0.66737        2.49722
H          1.46984        1.73296        2.38307
C          2.11922       -1.49691        1.54413
O          2.24245       -2.24236        0.41946
C          3.24057       -3.22855        0.35394
H          4.21597       -2.81924        0.66411
H          3.30041       -3.53667       -0.69800
H          2.99989       -4.11058        0.96981
C          1.77953        0.12799        3.77917
H          1.64111        0.77258        4.64958
C          2.24284       -2.03854        2.82333
H          2.47078       -3.09899        2.94503
C          2.06739       -1.22324        3.94144
H          2.15943       -1.65299        4.94180
C          3.43026       -0.58694       -2.32092
H          2.53821       -0.63682       -2.94669
C          4.48047       -0.04586       -0.21998
H          4.40542        0.33991        0.80119
C          4.66134       -1.03292       -2.80431
H          4.73260       -1.42780       -3.82085
C          5.72002       -0.48601       -0.68937
C          6.94530       -0.41009        0.17583
H          7.59847        0.42213       -0.13492
H          6.68262       -0.24753        1.23073
H          7.54398       -1.33138        0.10918
C          5.79351       -0.98581       -1.99758
H          6.75247       -1.34341       -2.38390
C          3.18266        2.90102       -0.67940
H          3.96306        2.30561       -1.15470
C          1.03319        3.08993        0.38786
H          0.10080        2.62959        0.72484
C          3.34778        4.28026       -0.55784
H          4.25512        4.75059       -0.94521
C          1.20012        4.46812        0.54568
C          0.13200        5.30353        1.19105
H          0.56249        6.15980        1.73064
H         -0.56184        5.71134        0.43668
H         -0.45979        4.71229        1.90452
C          2.37492        5.05659        0.06206
H          2.52226        6.13506        0.16859
