90
Cat795.ts34.5.log	Energy: -3539999.7535676
C         -1.62583       -1.74597       -3.02474
H         -1.67755       -2.83728       -3.08283
H         -2.53938       -1.24395       -3.36395
C         -0.37379       -1.11080       -3.26170
H          0.52205       -1.72545       -3.40704
H         -0.35219       -0.21182       -3.89071
H         -0.31952        0.01263       -2.07847
Co        -0.83973       -1.12508       -1.28162
C         -2.93716        1.73526       -1.32454
C         -4.04534       -0.57782       -0.26750
C         -2.05817        0.67536        1.26925
C          0.99599       -1.05920        1.54946
C          2.38843       -2.00156       -0.80263
C          1.86726        0.77098       -0.60793
P          1.05675       -0.83991       -0.29740
P         -2.36508        0.16527       -0.47170
C         -1.19962       -2.60074       -0.44588
O         -1.47226       -3.54265        0.16647
H         -3.40642        1.34178       -2.24145
H         -3.74634        2.16996       -0.71908
C         -1.92635        2.78551       -1.67580
C         -1.89653        4.00537       -0.98772
H         -2.61744        4.19140       -0.18688
C         -1.01986        2.59393       -2.72365
H         -1.05913        1.66159       -3.29059
C         -0.96380        4.98335       -1.32350
H         -0.94642        5.92853       -0.77513
C         -0.08995        3.57209       -3.08838
C          0.82047        3.36589       -4.26314
H          1.06999        2.30393       -4.39846
H          0.34058        3.71473       -5.19298
H          1.75695        3.92929       -4.14506
C         -0.06296        4.76812       -2.36260
H          0.67110        5.53634       -2.61704
C         -5.03051        0.05573        0.50387
H         -4.79949        0.98658        1.02934
C         -4.36730       -1.77912       -0.90303
H         -3.60718       -2.28635       -1.49841
C         -6.30135       -0.49054        0.63755
H         -7.06440        0.00131        1.24299
C         -5.63721       -2.34009       -0.78107
H         -5.88312       -3.28102       -1.27566
C         -6.59809       -1.69070       -0.01100
Cl        -8.17740       -2.37954        0.15231
C         -2.29679       -0.25100        2.29781
H         -2.78457       -1.20226        2.06893
C         -1.41986        1.87650        1.59766
H         -1.20600        2.61203        0.82229
C         -1.89236        0.00052        3.60440
H         -2.06337       -0.73364        4.39322
C         -1.01182        2.14322        2.90373
H         -0.50796        3.08015        3.14914
C         -1.23355        1.19521        3.89927
Cl        -0.66116        1.49289        5.50617
H          0.23156       -0.34967        1.89216
H          0.54480       -2.05875        1.65404
C          2.23602       -0.94185        2.37718
C          3.15541       -1.99630        2.46578
H          2.96953       -2.92454        1.92118
C          2.47702        0.21495        3.12361
H          1.73566        1.01824        3.11129
C          4.29472       -1.86696        3.25339
H          5.00531       -2.69473        3.31740
C          3.61330        0.36085        3.92565
C          3.82015        1.62366        4.71061
H          2.89744        1.91376        5.23673
H          4.62015        1.51218        5.45581
H          4.09471        2.46128        4.04829
C          4.52811       -0.69508        3.97264
H          5.42233       -0.60689        4.59566
C          2.03914       -3.20365       -1.42494
H          0.98562       -3.40126       -1.63838
C          3.74354       -1.74103       -0.55161
H          4.04155       -0.80734       -0.07053
C          3.00870       -4.14030       -1.77509
H          2.73421       -5.07942       -2.25795
C          4.72358       -2.66195       -0.90399
H          5.77743       -2.46123       -0.70483
C          4.34807       -3.86118       -1.51113
Cl         5.56447       -5.01180       -1.94918
C          1.67605        1.87503        0.22695
H          1.10988        1.76812        1.15020
C          2.59018        0.94965       -1.79537
H          2.75035        0.10479       -2.46955
C          2.18540        3.12685       -0.10647
H          2.02034        3.98841        0.54192
C          3.12175        2.18870       -2.13228
H          3.69276        2.31950       -3.05253
C          2.90679        3.27535       -1.28727
Cl         3.52998        4.83195       -1.72809
