58
Cat755.ts34.5.log	Energy: -1950878.8415807
C         -4.47568        0.76218       -0.26298
H         -5.20855        0.33228        0.42570
H         -4.48425        1.85782       -0.27561
C         -4.19685        0.06998       -1.48076
H         -4.64136       -0.91656       -1.64914
H         -4.12598        0.65036       -2.40862
H         -2.56890        0.24137       -1.56153
Co        -2.68767       -0.12013       -0.12936
O         -0.07865        1.58708       -0.64804
C         -2.02952        3.25842        0.21858
C         -0.72675        1.54445        2.03524
O          0.12154       -1.38777        0.42759
C         -1.54933       -3.30162       -0.54111
C         -0.41383       -1.36294       -2.27160
P         -1.19183       -1.51260       -0.63056
P         -1.44669        1.52790        0.35571
C         -3.15795       -0.94855        1.32580
O         -3.45034       -1.47385        2.31117
C          1.05563        2.29908       -0.39991
C          2.05255        1.75448        0.41196
H          1.87394        0.78139        0.87177
C          1.25348        3.53707       -1.01662
H          0.47282        3.94055       -1.66407
C          3.26180        2.42573        0.61592
C          4.31665        1.82124        1.49722
H          4.38394        0.73270        1.34949
H          5.30579        2.25964        1.30304
H          4.08359        1.98830        2.56195
C          2.45417        4.21297       -0.81326
H          2.61882        5.17797       -1.29910
C          3.45076        3.66515       -0.00695
H          4.39177        4.20264        0.13607
H         -2.41149        3.43437       -0.79753
H         -2.85587        3.40675        0.92979
H         -1.22947        3.98107        0.44003
H         -1.57118        1.63103        2.73600
H         -0.23721        0.57644        2.20930
H         -0.01827        2.36774        2.20944
C          1.28967       -2.08483        0.32187
C          2.32386       -1.59584       -0.47841
H          2.16023       -0.67587       -1.04259
C          1.47509       -3.24533        1.07727
H          0.66290       -3.60125        1.71361
C          3.55896       -2.25043       -0.53548
C          4.65674       -1.70893       -1.40515
H          4.47730       -1.95320       -2.46527
H          4.71863       -0.61247       -1.33303
H          5.63438       -2.12878       -1.12976
C          2.70033       -3.90361        1.02017
H          2.85496       -4.80771        1.61417
C          3.73404       -3.41320        0.22315
H          4.69398       -3.93516        0.19532
H         -1.92769       -3.53898        0.46357
H         -2.34543       -3.52449       -1.26706
H         -0.66713       -3.92128       -0.76298
H         -1.19741       -1.53460       -3.02463
H         -0.04556       -0.33287       -2.37569
H          0.40425       -2.08186       -2.42287
