88
Cat703.ts34.5.log	Energy: -2149896.1662077
C          1.63079       -1.29738       -2.82239
H          1.57872       -0.87270       -3.82862
H          2.65580       -1.36852       -2.44109
C          0.69795       -2.31216       -2.45031
H         -0.09827       -2.58903       -3.14907
H          1.06569       -3.17786       -1.88578
H          0.29133       -1.82594       -0.91778
Co         0.25032       -0.51852       -1.60279
C          2.88617       -0.59228        0.58467
O          2.59352        1.56029       -1.09550
O          1.00306        1.29706        0.89770
C         -2.12719        1.26182       -0.05284
O         -2.89256       -1.10417       -0.87759
O         -1.19243       -1.12543        1.04379
P         -1.47136       -0.40462       -0.40939
P          1.65792        0.41825       -0.34992
C         -0.26238        0.65753       -2.78979
O         -0.56221        1.47240       -3.54848
H          3.48666        0.05641        1.24517
H          3.58507       -1.04428       -0.13745
C          2.16752       -1.65596        1.40830
H          1.28489       -1.20172        1.88657
H          1.75506       -2.42451        0.73234
C          3.03091       -2.33040        2.47413
H          3.42806       -1.53383        3.13334
C          2.17820       -3.25894        3.33080
H          1.34799       -2.71320        3.80608
H          2.77090       -3.73399        4.12799
H          1.73793       -4.06272        2.71735
C          4.21830       -3.07301        1.87250
H          4.82628       -3.55592        2.65329
H          4.88123       -2.40125        1.30621
H          3.87409       -3.86193        1.18239
C          3.99996        1.76190       -1.06718
H          4.41644        1.38224       -0.11651
C          4.24165        3.25730       -1.13751
H          3.77971        3.76940       -0.28137
H          3.79940        3.66541       -2.05879
H          5.31919        3.47976       -1.13675
C          4.65011        1.01695       -2.21874
H          4.48456       -0.06684       -2.13678
H          4.21833        1.35234       -3.17370
H          5.73564        1.19669       -2.23874
C          1.74236        2.20400        1.70639
H          2.81346        2.14816        1.43870
C          1.58064        1.79948        3.15880
H          1.96119        0.78123        3.32693
H          0.51651        1.81458        3.43876
H          2.12489        2.48867        3.82212
C          1.25311        3.61026        1.41866
H          1.35559        3.82952        0.34667
H          0.19094        3.70803        1.69153
H          1.82642        4.35529        1.99122
H         -2.04657        1.78345       -1.02215
H         -1.35489        1.71156        0.59042
C         -3.53977        1.41993        0.49025
H         -4.22619        0.83078       -0.13746
H         -3.61766        0.99932        1.50700
C         -4.02008        2.87308        0.53808
H         -3.94190        3.28079       -0.48753
C         -5.48484        2.93163        0.95552
H         -6.11856        2.33397        0.28203
H         -5.86541        3.96490        0.94967
H         -5.61722        2.53468        1.97622
C         -3.15821        3.73749        1.45172
H         -3.52993        4.77321        1.48818
H         -2.11108        3.77487        1.11648
H         -3.16706        3.34481        2.48324
C         -2.89628       -2.34140       -1.59157
H         -1.94164       -2.86451       -1.40066
C         -3.01537       -2.05674       -3.07509
H         -2.16968       -1.43545       -3.40253
H         -3.94900       -1.51197       -3.28353
H         -3.01600       -2.99071       -3.65742
C         -4.03957       -3.17512       -1.05134
H         -3.91642       -3.35937        0.02559
H         -4.99631       -2.65172       -1.20198
H         -4.09048       -4.14586       -1.56692
C         -2.14820       -1.31805        2.08130
H         -3.15943       -1.12463        1.68317
C         -1.84531       -0.36095        3.21903
H         -1.87179        0.68268        2.87535
H         -0.83942       -0.55833        3.62011
H         -2.57535       -0.47666        4.03450
C         -2.06310       -2.77083        2.50802
H         -2.28032       -3.43460        1.65904
H         -1.04845       -3.00106        2.86725
H         -2.77916       -2.98826        3.31484
