102
Cat796.ts34.5.log	Energy: -2485318.8261286
C         -1.77536       -0.98151       -3.19101
H         -1.77959       -2.02114       -3.53204
H         -2.73153       -0.46643       -3.33937
C         -0.57199       -0.22914       -3.31514
H          0.34121       -0.72529       -3.66307
H         -0.63407        0.80153       -3.68751
H         -0.49658        0.54683       -1.88480
Co        -0.90660       -0.78865       -1.38974
C         -3.11280        1.84484       -0.43561
C         -4.06467       -0.74429       -0.10564
C         -2.04175        0.08296        1.63750
C          1.16630       -1.24558        1.27981
C          2.37713       -1.55803       -1.32412
C          1.73781        1.06582       -0.39961
P          1.04048       -0.62574       -0.47685
P         -2.43141        0.11893       -0.15748
C         -1.11703       -2.45174       -0.95122
O         -1.28326       -3.53627       -0.58424
H         -3.71515        1.71187       -1.34937
H         -3.82205        2.06304        0.37700
C         -2.15985        2.98708       -0.62510
C         -2.08004        4.02667        0.31121
H         -2.71002        3.99897        1.20467
C         -1.37113        3.07390       -1.77566
H         -1.45224        2.28611       -2.52638
C         -1.22879        5.10717        0.09651
H         -1.18221        5.91562        0.83064
C         -0.50693        4.14771       -2.00771
C          0.30647        4.20363       -3.26746
H          0.79631        3.23860       -3.46369
H         -0.32752        4.43767       -4.13861
H          1.08904        4.97303       -3.20736
C         -0.44481        5.16704       -1.05315
H          0.22160        6.01807       -1.21646
C         -5.02305       -0.42606        0.86854
H         -4.79298        0.31844        1.63611
C         -4.37948       -1.72499       -1.04621
H         -3.63868       -1.99446       -1.80001
C         -6.25588       -1.06471        0.88958
H         -6.98493       -0.80259        1.66205
C         -5.61893       -2.36510       -1.02130
H         -5.84001       -3.13402       -1.76680
C         -6.57856       -2.04764       -0.05809
C         -7.91145       -2.73582       -0.02130
H         -8.73631       -2.01116       -0.11168
H         -8.01145       -3.46554       -0.83675
H         -8.05627       -3.27109        0.93078
C         -1.58413        1.19179        2.35420
H         -1.54663        2.17250        1.87903
C         -2.07558       -1.15865        2.29250
H         -2.43176       -2.04266        1.75642
C         -1.14271        1.05771        3.67198
H         -0.77971        1.94059        4.20633
C         -1.64457       -1.28345        3.60643
H         -1.67613       -2.26426        4.08937
C         -1.15023       -0.18077        4.31879
C         -0.61958       -0.33912        5.71281
H         -1.23977       -1.02838        6.30512
H          0.40184       -0.75483        5.69498
H         -0.57534        0.62389        6.24112
H          0.54134       -0.56884        1.87953
H          0.63922       -2.21077        1.25737
C          2.53498       -1.39728        1.85870
C          3.21199       -2.61938        1.76294
H          2.71820       -3.47119        1.28848
C          3.19036       -0.31676        2.45951
H          2.67040        0.64020        2.54443
C          4.51281       -2.74266        2.24060
H          5.03465       -3.69880        2.15298
C          4.50055       -0.42024        2.93745
C          5.16620        0.75906        3.58680
H          4.87450        1.70109        3.09899
H          4.88011        0.83950        4.64904
H          6.26196        0.67667        3.54811
C          5.15816       -1.64946        2.81535
H          6.18473       -1.75052        3.17869
C          2.03206       -2.54209       -2.25311
H          0.97555       -2.70089       -2.48277
C          3.73764       -1.35379       -1.04352
H          4.03976       -0.59272       -0.32099
C          3.01294       -3.31242       -2.87611
H          2.71685       -4.08057       -3.59588
C          4.71086       -2.11905       -1.67296
H          5.76368       -1.94721       -1.43133
C          4.36798       -3.11457       -2.59906
C          5.43220       -3.92797       -3.27519
H          6.12221       -4.37138       -2.54047
H          4.99998       -4.74306       -3.87219
H          6.03936       -3.30275       -3.95002
C          1.36463        1.93855        0.62795
H          0.70669        1.59223        1.42606
C          2.54129        1.56655       -1.43043
H          2.83182        0.91646       -2.25896
C          1.81070        3.25516        0.64446
H          1.49540        3.91616        1.45596
C          2.98384        2.88641       -1.40954
H          3.61318        3.25169       -2.22635
C          2.63475        3.75401       -0.36955
C          3.13312        5.16851       -0.34187
H          4.16937        5.21759        0.03252
H          3.13251        5.61512       -1.34782
H          2.51503        5.79888        0.31309
