110
Cat786.ts34.5.log	Energy: -2300205.7969972
C          0.54063       -2.91589       -2.33827
H          0.41698       -2.92303       -3.42478
H          1.56262       -3.16519       -2.02477
C         -0.54464       -3.36177       -1.52479
H         -1.49857       -3.61675       -1.99939
H         -0.32129       -4.02455       -0.67884
H         -0.61047       -2.24934       -0.34426
Co        -0.34127       -1.33297       -1.49300
C          2.22351       -1.76350        0.67578
C          2.86133       -0.35077       -1.79217
C          1.47992        1.01817        0.34138
C         -2.76521        1.04985       -1.67164
C         -3.60411       -1.48222       -0.66158
C         -2.05254        0.30379        1.01726
P         -2.10514       -0.40168       -0.69400
P          1.47919       -0.58681       -0.57620
C         -0.45392       -0.53156       -3.02306
O         -0.47635        0.03049       -4.03441
H          1.51459       -1.76926        1.51862
H          2.15063       -2.75404        0.20016
C          3.61827       -1.49963        1.14040
C          4.71040       -2.10768        0.51114
H          4.53684       -2.83739       -0.28427
C          3.86948       -0.58601        2.17327
H          3.02264       -0.12361        2.68944
C          6.01171       -1.77053        0.87602
H          6.85736       -2.24119        0.36828
C          5.16713       -0.23643        2.55377
C          5.40880        0.74040        3.66806
H          4.48758        1.27210        3.94538
H          5.78144        0.22742        4.56990
H          6.16462        1.48970        3.38736
C          6.24114       -0.83303        1.87953
H          7.26583       -0.56797        2.15436
H          3.22624       -1.36891       -2.01127
H          2.38439       -0.01147       -2.72612
C          4.02502        0.56203       -1.42259
H          3.69317        1.61416       -1.45225
H          4.35095        0.37817       -0.38801
C          5.22695        0.39080       -2.34014
H          4.93243        0.58892       -3.38704
H          5.54794       -0.66669       -2.31247
C          6.40355        1.27757       -1.95848
H          6.08476        2.33495       -1.98415
H          6.67444        1.07160       -0.90760
C          7.62018        1.08742       -2.84952
H          8.45355        1.74020       -2.54775
H          7.38522        1.31338       -3.90223
H          7.98242        0.04718       -2.81168
H          0.86275        0.86283        1.24088
H          2.49405        1.26576        0.69276
C          0.90106        2.14874       -0.49691
H          1.59185        2.39479       -1.32178
H         -0.01733        1.78614       -0.98778
C          0.59200        3.40809        0.29857
H          1.50003        3.74579        0.83008
H         -0.13907        3.16451        1.09318
C          0.04952        4.54629       -0.55485
H          0.80788        4.82643       -1.30656
H         -0.81735        4.18367       -1.13560
C         -0.35387        5.76921        0.25227
H         -0.73335        6.57591       -0.39298
H          0.49854        6.17170        0.82281
H         -1.14653        5.52407        0.97782
H         -1.89677        1.69647       -1.86751
H         -3.05439        0.62645       -2.64586
C         -3.88490        1.83512       -1.06431
C         -5.22473        1.51048       -1.31820
H         -5.46142        0.69564       -2.00725
C         -3.61598        2.90822       -0.20749
H         -2.57531        3.18509       -0.01641
C         -6.25131        2.22833       -0.71134
H         -7.29213        1.96676       -0.91760
C         -4.63344        3.64216        0.41047
C         -4.29540        4.79573        1.31049
H         -5.18186        5.16546        1.84448
H         -3.54052        4.51110        2.05990
H         -3.87632        5.63707        0.73481
C         -5.96002        3.28271        0.15229
H         -6.77238        3.84107        0.62523
H         -4.48855       -0.85418       -0.46329
H         -3.69795       -1.86119       -1.69397
C         -3.56277       -2.64679        0.31741
H         -2.57756       -3.13979        0.27591
H         -3.66948       -2.26548        1.34684
C         -4.65072       -3.67941        0.05729
H         -4.53471       -4.07602       -0.96798
H         -5.63978       -3.18615        0.07669
C         -4.63941       -4.83391        1.04917
H         -3.64482       -5.31400        1.03001
H         -4.75638       -4.43302        2.07180
C         -5.71542       -5.87348        0.78079
H         -5.68120       -6.69380        1.51368
H         -5.60006       -6.31771       -0.22102
H         -6.72211       -5.42760        0.82735
H         -1.50914        1.25798        0.91694
H         -3.07493        0.56825        1.33420
C         -1.34871       -0.55955        2.05346
H         -1.96589       -1.43518        2.31031
H         -0.43538       -0.97477        1.59781
C         -0.98966        0.19723        3.32428
H         -1.90917        0.57221        3.80904
H         -0.40926        1.10073        3.05817
C         -0.18889       -0.63439        4.31652
H         -0.77245       -1.52946        4.59507
H          0.71766       -1.01781        3.81412
C          0.20965        0.13134        5.56735
H          0.78645       -0.49662        6.26305
H         -0.67561        0.50201        6.10871
H          0.83040        1.00720        5.31715
