82
Cat749.ts34.5.log	Energy: -2148030.3490431
C          1.96034       -2.95089       -0.75620
H          1.94949       -3.53873       -1.67879
H          2.97032       -2.68877       -0.42352
C          0.97074       -3.21531        0.23452
H          0.17560       -3.93908        0.02592
H          1.28482       -3.25034        1.28517
H          0.59144       -1.67467        0.70619
Co         0.59965       -1.47822       -0.75311
C          1.03426        1.18115        1.19244
C          3.53829       -0.06446        0.33709
C          2.05839        1.59723       -1.44335
C         -1.89120        0.84688       -1.08002
C         -2.76771       -1.80356       -1.21746
C         -1.99729       -0.76261        1.37850
P         -1.43731       -0.81665       -0.38705
P          1.79263        0.24866       -0.20408
C          0.47671       -1.64235       -2.47402
O          0.43968       -1.76212       -3.62515
C          0.22976        2.30108        0.95878
H          0.14367        2.69963       -0.05333
C          1.08469        0.67715        2.51102
O          1.82588       -0.43875        2.69700
C          1.93837       -0.98878        3.97930
H          2.39707       -0.27890        4.68934
H          2.58733       -1.86871        3.88500
H          0.95887       -1.30923        4.37470
C         -0.49272        2.91829        1.98101
H         -1.11041        3.79040        1.75597
C          0.37620        1.29786        3.54307
H          0.42562        0.90776        4.55972
C         -0.41327        2.41718        3.27446
H         -0.96629        2.89089        4.08903
H          3.91802        0.79085        0.92006
H          3.49062       -0.91816        1.02821
C          4.46151       -0.38661       -0.83363
H          4.65167        0.52405       -1.42477
H          3.95203       -1.08613       -1.51773
C          5.78711       -0.98091       -0.38341
H          6.32239       -0.29795        0.29591
H          5.63310       -1.92904        0.15672
H          6.44858       -1.18848       -1.23846
H          2.48755        1.08922       -2.32375
H          1.06049        1.92513       -1.77025
C          2.90393        2.79819       -1.04014
H          3.93362        2.47513       -0.81574
H          2.51628        3.22748       -0.10178
C          2.93067        3.87021       -2.11985
H          3.33909        3.47640       -3.06456
H          1.91544        4.24292       -2.33247
H          3.54787        4.73193       -1.82230
C         -1.23915        1.21141       -2.26116
H         -0.52045        0.51279       -2.69092
C         -2.83684        1.75555       -0.55421
O         -3.53305        1.37284        0.53473
C         -4.38144        2.28031        1.17577
H         -3.83743        3.18060        1.51062
H         -4.78289        1.76192        2.05612
H         -5.22212        2.58866        0.52975
C         -1.45703        2.43558       -2.89268
H         -0.92346        2.67793       -3.81389
C         -3.03232        3.00333       -1.15916
H         -3.73982        3.71448       -0.73289
C         -2.34178        3.34168       -2.32121
H         -2.51319        4.31755       -2.78208
H         -3.74818       -1.37914       -0.93878
H         -2.62954       -1.61493       -2.29584
C         -2.70653       -3.29895       -0.94722
H         -2.87384       -3.49266        0.12609
H         -1.68208       -3.64359       -1.16401
C         -3.71211       -4.08900       -1.76977
H         -4.74526       -3.76968       -1.55742
H         -3.53840       -3.94729       -2.84842
H         -3.64615       -5.16770       -1.56013
H         -1.70904        0.22427        1.77139
H         -3.09667       -0.77946        1.37675
C         -1.45401       -1.85000        2.29356
H         -0.35950       -1.75961        2.35323
H         -1.64534       -2.84988        1.87087
C         -2.05314       -1.75618        3.68868
H         -1.85360       -0.76860        4.13549
H         -3.14668       -1.89119        3.66812
H         -1.63746       -2.52290        4.36133
