86
Cat736.ts34.5.log	Energy: -2680716.6418953
C         -0.75757       -1.23962       -2.97462
H         -1.78040       -1.60540       -2.82769
H         -0.60697       -0.70972       -3.91985
C          0.31731       -1.97921       -2.42449
H          0.09642       -2.93922       -1.94399
H          1.30034       -1.96451       -2.90524
H          0.27989       -1.52274       -0.76388
Co         0.05282       -0.22744       -1.41831
C          1.72688       -0.49175        1.53215
C          3.32112       -0.69564       -0.85074
C          2.39799        1.81751        0.02563
C         -1.72695        0.34193        1.54383
C         -3.18394        0.82183       -0.83363
C         -2.53326       -1.84365       -0.10058
P         -1.75482       -0.17056       -0.22824
P          1.78867        0.09638       -0.21055
C          0.17027        1.20710       -2.39465
O          0.22111        2.14456       -3.06705
C          1.70082        0.40179        2.60464
H          1.75809        1.47296        2.40396
C          1.64311       -1.87206        1.81300
O          1.66155       -2.70016        0.74489
C          1.79110       -4.08162        0.93514
H          2.70387       -4.32649        1.50475
H          1.86025       -4.52686       -0.06507
H          0.91764       -4.50861        1.45873
C          1.60879       -0.04475        3.92188
H          1.58437        0.67759        4.73947
C          1.56242       -2.32615        3.13151
H          1.51102       -3.39376        3.34628
C          1.54610       -1.40828        4.18106
H          1.47952       -1.77256        5.20895
C          4.27683       -1.31977       -0.04225
H          4.12241       -1.37914        1.03787
C          3.54952       -0.61894       -2.22930
H          2.80171       -0.13531       -2.86385
C          5.43462       -1.86241       -0.59484
H          6.18821       -2.35539        0.02230
C          4.70668       -1.14561       -2.79527
H          4.89836       -1.08841       -3.86829
C          5.63354       -1.76756       -1.96707
F          6.73813       -2.28609       -2.50005
C          1.48151        2.87063       -0.05110
H          0.43251        2.64429       -0.24791
C          3.74283        2.10896        0.29023
H          4.47672        1.30234        0.34464
C          1.89009        4.18919        0.13471
H          1.18935        5.02304        0.06466
C          4.16528        3.42115        0.47742
H          5.21042        3.66368        0.67797
C          3.22953        4.44646        0.39606
F          3.62884        5.70437        0.56937
C         -1.79736       -0.55893        2.60713
H         -1.91000       -1.62368        2.39851
C         -1.60008        1.71554        1.84449
O         -1.54906        2.55016        0.78522
C         -1.71443        3.92752        0.97740
H         -2.65968        4.14750        1.50223
H         -1.74684        4.37767       -0.02308
H         -0.87533        4.36791        1.54329
C         -1.74877       -0.12732        3.93268
H         -1.80443       -0.85685        4.74280
C         -1.56359        2.15523        3.16946
H         -1.47878        3.21846        3.39540
C         -1.63600        1.22937        4.21006
H         -1.60436        1.58177        5.24381
C         -3.21426        1.22558       -2.17041
H         -2.38357        0.96186       -2.82676
C         -4.25056        1.17877        0.00251
H         -4.24251        0.87290        1.05200
C         -4.28083        1.96966       -2.67169
H         -4.31227        2.29423       -3.71330
C         -5.32022        1.92557       -0.48044
H         -6.15519        2.21450        0.16078
C         -5.31978        2.31204       -1.81713
F         -6.33971        3.03030       -2.28384
C         -3.87283       -2.10002       -0.41709
H         -4.52657       -1.28321       -0.72662
C         -1.72342       -2.92723        0.27248
H         -0.66716       -2.75324        0.48936
C         -4.39552       -3.39067       -0.35239
H         -5.43716       -3.59666       -0.60550
C         -2.23429       -4.21825        0.35891
H         -1.61116       -5.06487        0.65353
C         -3.57044       -4.43444        0.04194
F         -4.06336       -5.66956        0.11031
