112
Cat719.ts34.5.log	Energy: -2442060.6114800
C         -0.40744        0.97777       -3.29795
H         -0.15365        0.37771       -4.17640
H         -1.40510        1.42973       -3.36366
C          0.62956        1.72369       -2.66193
H          1.66195        1.61250       -3.01143
H          0.40757        2.75849       -2.36870
H          0.37306        1.45455       -1.08691
Co         0.10429        0.07851       -1.58489
C         -2.70378        1.78426       -0.65459
C         -3.05190       -0.76745       -1.91075
C         -2.35312       -0.67234        0.93323
C          1.26163       -1.79982        1.02558
C          3.12992       -1.14622       -1.13052
C          2.35871        0.73611        1.05068
P          1.66413       -0.46847       -0.19371
P         -1.89624        0.12151       -0.72420
C          0.17233       -1.43123       -2.42467
O          0.15632       -2.43683       -2.99869
H         -3.72916        1.69229       -0.26397
H         -2.78441        2.08626       -1.71221
C         -1.93338        2.83207        0.13401
H         -2.00550        2.59195        1.20444
H         -0.86034        2.77742       -0.12506
C         -2.42125        4.26863       -0.06936
H         -3.51663        4.27323        0.08535
C         -1.79683        5.18372        0.97775
H         -2.04770        4.85156        1.99727
H         -2.14095        6.22368        0.86522
H         -0.69724        5.18506        0.88801
C         -2.13743        4.78159       -1.47670
H         -2.52449        5.80283       -1.61613
H         -2.59406        4.14920       -2.25324
H         -1.05103        4.80925       -1.66754
H         -3.01125       -0.14516       -2.81778
H         -2.53794       -1.70292       -2.16886
C         -4.46531       -1.00796       -1.48766
C         -5.41252        0.02014       -1.59094
H         -5.11156        0.97135       -2.03572
C         -4.87106       -2.25668       -0.96554
C         -3.94279       -3.43925       -0.94180
H         -2.99379       -3.22977       -0.42573
H         -3.67647       -3.75471       -1.96394
H         -4.41139       -4.29679       -0.43992
C         -6.71943       -0.14264       -1.14247
H         -7.43367        0.67931       -1.23026
C         -6.18699       -2.40180       -0.51019
H         -6.49742       -3.36529       -0.09669
C         -7.10619       -1.35806       -0.58230
H         -8.12569       -1.50091       -0.21679
H         -2.95983       -1.55150        0.68085
H         -1.41422       -1.04818        1.35597
C         -3.10424        0.15402        1.93495
C         -4.50210        0.21388        1.87892
H         -5.02781       -0.36217        1.11487
C         -2.42954        0.88324        2.93613
C         -0.93387        0.83635        3.04630
H         -0.45687        1.00857        2.06984
H         -0.58506       -0.14560        3.40870
H         -0.55980        1.59776        3.74452
C         -5.23041        0.99255        2.77382
H         -6.32017        1.02310        2.70216
C         -3.17495        1.65851        3.83036
H         -2.64808        2.22600        4.60272
C         -4.56418        1.72378        3.75382
H         -5.12261        2.34086        4.46172
H          0.59229       -1.32215        1.76084
H          2.18258       -2.04867        1.57449
C          0.59634       -3.03240        0.44095
H         -0.30761       -2.71402       -0.10324
H          1.24875       -3.49502       -0.32210
C          0.21283       -4.09755        1.47132
H         -0.43851       -3.61033        2.22233
C         -0.58838       -5.21082        0.80658
H         -1.49080       -4.81915        0.31328
H         -0.90636       -5.96987        1.53786
H          0.01451       -5.71994        0.03651
C          1.42552       -4.66729        2.20000
H          1.12518       -5.43549        2.92912
H          1.98513       -3.89529        2.74940
H          2.11972       -5.14299        1.48629
H          2.72265       -2.06548       -1.58453
H          3.24747       -0.44320       -1.96464
C          4.43894       -1.42139       -0.45481
C          4.55187       -2.47700        0.46103
H          3.68397       -3.11164        0.65173
C          5.59067       -0.66401       -0.76540
C          5.57017        0.41267       -1.81088
H          4.82060        1.18737       -1.59454
H          5.33716       -0.00361       -2.80487
H          6.54765        0.90832       -1.87803
C          5.75161       -2.75974        1.10919
H          5.80647       -3.58837        1.81915
C          6.78783       -0.96144       -0.10462
H          7.67647       -0.37000       -0.34151
C          6.87645       -1.98748        0.83269
H          7.82617       -2.19226        1.33246
H          1.46573        1.23431        1.46113
H          2.77785        0.12761        1.86184
C          3.35632        1.76984        0.61413
C          3.00828        2.71753       -0.35531
H          2.00949        2.67871       -0.78879
C          4.63479        1.83521        1.20907
C          5.04959        0.89715        2.30569
H          4.97094       -0.15676        2.00035
H          4.42498        1.03061        3.20441
H          6.09293        1.07723        2.59706
C          3.90395        3.69816       -0.77255
H          3.60464        4.42105       -1.53506
C          5.52426        2.82504        0.77473
H          6.51780        2.87126        1.22901
C          5.17615        3.74688       -0.20897
H          5.89493        4.50601       -0.52646
