98
Cat731.ts34.5.log	Energy: -2435365.5104893
C          1.59153       -0.67693        2.66186
H          1.42997       -1.59865        3.22807
H          2.63780       -0.45531        2.43131
C          0.67267        0.38479        2.81156
H         -0.20752        0.26573        3.45159
H          1.05263        1.41185        2.78930
H          0.35744        0.86175        1.15851
Co         0.39198       -0.59908        1.03178
C          1.21219        1.22684       -1.67860
O          3.19828        0.49010        0.06623
O          2.12803       -1.27736       -1.50844
C         -2.20651       -1.05155       -1.12910
O         -2.82713       -0.28329        1.44556
O         -1.67829        1.41031        0.00901
P         -1.56893       -0.18373        0.37474
P          1.73616       -0.04897       -0.46717
C          0.39957       -2.33306        0.98762
O          0.47612       -3.48331        0.92428
C          0.85898        0.87567       -2.98312
H          1.04770       -0.14510       -3.32008
C          0.91258        2.52883       -1.22969
O          1.26522        2.80918        0.04151
C          0.73155        3.94437        0.66725
H          1.10989        4.87857        0.21727
H          1.05471        3.90352        1.71524
H         -0.36995        3.93486        0.63178
C          0.24224        1.78788       -3.83925
H         -0.02869        1.48920       -4.85384
C          0.29608        3.44864       -2.08062
H          0.06924        4.45759       -1.73500
C         -0.03359        3.07248       -3.38321
H         -0.51781        3.79792       -4.04167
C          4.07719        1.42084       -0.53635
H          4.93426        0.86533       -0.96085
H          3.57493        1.94555       -1.36664
C          4.56120        2.40962        0.50289
H          5.21534        3.14424       -0.00009
H          3.68554        2.96583        0.87515
C          5.29874        1.76252        1.66608
H          6.17871        1.21651        1.28100
H          4.64227        0.99992        2.11551
C          5.73362        2.76087        2.72591
H          6.41110        3.52379        2.30857
H          4.86583        3.29083        3.15113
H          6.25992        2.26801        3.55735
C          3.31386       -1.33902       -2.27982
H          3.05536       -1.88762       -3.20197
H          3.63908       -0.32948       -2.58690
C          4.41522       -2.06565       -1.53091
H          5.31593       -2.08779       -2.17045
H          4.67536       -1.47810       -0.63433
C          4.02673       -3.47812       -1.11636
H          3.81008       -4.07552       -2.02031
H          3.08137       -3.43157       -0.55230
C          5.09372       -4.16911       -0.28415
H          6.04701       -4.25021       -0.83205
H          5.29459       -3.61004        0.64401
H          4.78663       -5.18619        0.00270
C         -1.25099       -1.76997       -1.85581
H         -0.22341       -1.79319       -1.48782
C         -3.53211       -1.03390       -1.62220
O         -4.45081       -0.34209       -0.91553
C         -5.77282       -0.27234       -1.36783
H         -5.84060        0.19438       -2.36606
H         -6.31355        0.35283       -0.64593
H         -6.24708       -1.26847       -1.40609
C         -1.56798       -2.44873       -3.03034
H         -0.79293       -2.99903       -3.56718
C         -3.85664       -1.71739       -2.79933
H         -4.87845       -1.70729       -3.17830
C         -2.87562       -2.41843       -3.49827
H         -3.14885       -2.94604       -4.41556
C         -3.56936       -1.44623        1.76180
H         -4.32446       -1.10448        2.48898
H         -4.11416       -1.79299        0.86868
C         -2.77124       -2.59261        2.35313
H         -3.49530       -3.38969        2.60166
H         -2.10943       -3.02379        1.58324
C         -1.95440       -2.22130        3.57903
H         -2.61486       -1.76064        4.33542
H         -1.23836       -1.44442        3.27276
C         -1.20644       -3.39884        4.18126
H         -1.89769       -4.18955        4.51661
H         -0.52292       -3.84894        3.44456
H         -0.60539       -3.09199        5.05102
C         -2.74411        2.12515       -0.58823
H         -2.27524        3.03589       -0.99599
H         -3.15124        1.56456       -1.44321
C         -3.83650        2.48811        0.39911
H         -4.58149        3.10663       -0.13423
H         -4.34575        1.56542        0.71422
C         -3.32370        3.22521        1.62696
H         -2.83027        4.16427        1.31461
H         -2.54196        2.60695        2.09658
C         -4.41562        3.52915        2.63878
H         -5.20951        4.15748        2.20245
H         -4.88902        2.59989        2.99448
H         -4.02023        4.05739        3.51985
