86
Cat766.ts34.5.log	Energy: -3585063.4758286
C          1.26424       -3.09723        1.57702
H          1.29762       -4.07351        1.08481
H          2.23576       -2.74907        1.94387
C          0.10195       -2.74554        2.31698
H         -0.77531       -3.40089        2.29060
H          0.22879       -2.24649        3.28480
H         -0.08625       -1.17680        1.86242
Co         0.18169       -1.75768        0.53328
O          2.35132        0.25438        1.71493
C          3.17565       -0.68119       -0.70738
C          1.22671        1.33289       -0.51111
O         -1.78121       -0.16709       -1.37468
C         -3.06062       -2.11011        0.03954
C         -2.37748        0.38375        1.24311
P         -1.69574       -0.90047        0.13797
P          1.66467       -0.27629        0.24740
C          0.14357       -2.79164       -0.87171
O          0.13843       -3.46268       -1.80790
C          3.67901        0.55203        1.87083
C          4.60394       -0.48697        1.99322
H          4.23991       -1.51620        1.97946
C          4.11174        1.87763        1.89685
H          3.38803        2.68794        1.80922
C          5.97308       -0.22870        2.07604
C          6.96211       -1.35746        2.08845
H          7.28079       -1.59891        1.06014
H          7.86516       -1.09933        2.66029
H          6.52853       -2.27077        2.52017
C          5.47481        2.14436        2.01660
H          5.81906        3.18126        2.03984
C          6.39893        1.10611        2.09027
H          7.46631        1.33067        2.16110
C          3.53723       -2.02420       -0.84673
H          2.83886       -2.80000       -0.52754
C          4.07128        0.30931       -1.13478
H          3.80418        1.36408       -1.04470
C          4.78313       -2.38066       -1.35450
H          5.07269       -3.42811       -1.45103
C          5.32156       -0.03001       -1.63624
H          6.03213        0.73991       -1.93996
C          5.67619       -1.37649       -1.72184
Cl         7.26031       -1.80520       -2.27390
C          0.97763        1.37601       -1.88976
H          1.06670        0.46580       -2.48829
C          1.06170        2.49895        0.24031
H          1.22935        2.47253        1.31828
C          0.62133        2.56528       -2.51319
H          0.43204        2.60087       -3.58684
C          0.69901        3.69892       -0.37055
H          0.57862        4.61200        0.21468
C          0.49532        3.72526       -1.74759
Cl         0.06195        5.21415       -2.52122
C         -2.73470        0.75206       -1.73203
C         -2.59007        2.07795       -1.32749
H         -1.72068        2.35012       -0.72689
C         -3.83582        0.36072       -2.49494
H         -3.93469       -0.67732       -2.81236
C         -3.56149        3.03369       -1.63962
C         -3.42526        4.43719       -1.12649
H         -3.48358        4.45718       -0.02560
H         -2.45593        4.87290       -1.41175
H         -4.22025        5.08758       -1.51710
C         -4.79475        1.31363       -2.82965
H         -5.65958        1.01892       -3.42900
C         -4.66628        2.63366       -2.39943
H         -5.43563        3.36636       -2.65623
C         -3.26667       -2.81726       -1.15189
H         -2.67912       -2.56672       -2.03801
C         -3.79141       -2.47491        1.17663
H         -3.63547       -1.94690        2.12089
C         -4.20139       -3.84412       -1.21904
H         -4.36639       -4.39119       -2.14860
C         -4.72679       -3.50445        1.12330
H         -5.30173       -3.78512        2.00722
C         -4.93047       -4.18112       -0.07834
Cl        -6.09644       -5.45750       -0.15427
C         -3.72406        0.77073        1.16983
H         -4.41832        0.22158        0.53017
C         -1.51130        1.11180        2.06477
H         -0.46314        0.81282        2.14073
C         -4.18860        1.87310        1.87638
H         -5.23110        2.18567        1.80323
C         -1.96072        2.22073        2.77516
H         -1.28201        2.79559        3.40704
C         -3.29606        2.60329        2.66126
Cl        -3.85290        4.01640        3.48900
