86
Cat787.ts34.5.log	Energy: -2102986.8098586
C         -2.47419       -3.47849       -0.51871
H         -2.31262       -4.39936        0.04929
H         -3.51534       -3.13948       -0.50799
C         -1.68940       -3.25481       -1.67906
H         -0.91472       -3.97565       -1.96053
H         -2.18156       -2.82075       -2.55858
H         -1.11662       -1.68760       -1.53891
Co        -1.05709       -2.09737       -0.11661
C         -1.47574        1.04717       -1.20952
C         -3.93212       -0.36911       -0.34023
C         -2.01994        0.81737        1.67338
C          1.52462       -0.34306        0.94142
C          2.09224       -3.17511        0.36363
C          1.79758       -1.14281       -1.89101
P          1.08359       -1.72163       -0.25727
P         -2.11458       -0.17935        0.07950
C         -0.91285       -2.83154        1.43460
O         -0.82165       -3.34705        2.46886
H         -0.44649        0.70084       -1.37798
H         -2.02219        0.79756       -2.13267
C         -1.45451        2.52717       -0.96920
C         -2.39782        3.39679       -1.52760
H         -3.18466        3.00363       -2.17393
C         -0.43933        3.08403       -0.17900
H          0.32959        2.43078        0.24020
C         -2.33720        4.76533       -1.27151
H         -3.08040        5.43134       -1.71709
C         -0.36112        4.45149        0.09272
C          0.73006        4.99315        0.97064
H          1.58405        4.30200        1.02384
H          1.09405        5.96620        0.60862
H          0.36631        5.14562        2.00049
C         -1.33394        5.29158       -0.46231
H         -1.29492        6.36730       -0.27005
H         -3.86587       -1.11033       -1.15738
C         -4.65994       -1.04636        0.81834
H         -5.62622       -1.45244        0.47837
H         -4.06871       -1.87543        1.23399
H         -4.87154       -0.33772        1.63251
C         -4.70749        0.82371       -0.88266
H         -4.27091        1.20573       -1.81519
H         -5.74062        0.51576       -1.11568
H         -4.76346        1.65684       -0.17002
H         -1.02479        1.28623        1.58307
C         -3.02733        1.95026        1.84868
H         -2.75381        2.54900        2.73301
H         -3.05749        2.63168        0.98913
H         -4.04286        1.56592        2.02324
C         -1.97752       -0.07187        2.91093
H         -1.15249       -0.79306        2.87351
H         -1.84346        0.55122        3.81022
H         -2.90703       -0.64477        3.04316
H          0.65610        0.32322        0.84783
H          1.41748       -0.81916        1.92928
C          2.77699        0.48002        0.88208
C          3.81417        0.30424        1.80628
H          3.71957       -0.45694        2.58507
C          2.91141        1.50068       -0.06789
H          2.10471        1.67397       -0.78508
C          4.95241        1.10512        1.75504
H          5.75152        0.95779        2.48574
C          4.04361        2.31738       -0.13504
C          4.14992        3.37983       -1.19046
H          4.52688        2.95719       -2.13686
H          3.16996        3.83207       -1.40452
H          4.84088        4.18058       -0.89062
C          5.07111        2.10271        0.79024
H          5.96470        2.73204        0.76214
H          1.63086       -3.29362        1.36049
C          1.74854       -4.42635       -0.43702
H          2.15582       -5.32261        0.05742
H          0.65958       -4.54409       -0.52698
H          2.17859       -4.38696       -1.45078
C          3.59701       -3.04146        0.56999
H          3.88547       -2.08775        1.02871
H          3.94418       -3.84968        1.23469
H          4.15375       -3.13951       -0.37099
H          1.47626       -0.08549       -1.90993
C          3.31765       -1.17421       -2.02064
H          3.62461       -0.57508       -2.89360
H          3.83860       -0.77238       -1.14348
H          3.67228       -2.20084       -2.19378
C          1.15577       -1.82728       -3.09377
H          0.06817       -1.68558       -3.11819
H          1.57559       -1.41122       -4.02384
H          1.35272       -2.91025       -3.09935
