102
Cat764.ts34.5.log	Energy: -2719047.6594975
C          1.47607        2.88218       -1.81567
H          1.55057        3.89004       -1.39672
H          2.43508        2.46121       -2.13685
C          0.30921        2.53479       -2.55403
H         -0.53171        3.23537       -2.59648
H          0.42890        1.96357       -3.48227
H          0.03746        1.01882       -1.99402
Co         0.31009        1.67963       -0.70388
O          2.41341       -0.47609       -1.74049
C          3.22019        0.54148        0.66338
C          1.19362       -1.40431        0.50422
O         -1.71884        0.26118        1.27079
C         -2.92693        2.19504       -0.19333
C         -2.35530       -0.34646       -1.33668
P         -1.61271        0.93328       -0.27756
P          1.72315        0.14714       -0.30487
C          0.29307        2.80680        0.62415
O          0.30034        3.54132        1.51354
C          3.71923       -0.86283       -1.84451
C          4.71546        0.10815       -1.97304
H          4.42017        1.15896       -1.99568
C          4.06588       -2.21423       -1.81656
H          3.28726       -2.97095       -1.72086
C          6.06531       -0.24268       -2.01167
C          7.12655        0.81895       -2.02589
H          6.76532        1.74602       -2.49373
H          7.42981        1.06655       -0.99423
H          8.02698        0.48745       -2.56341
C          5.41039       -2.57373       -1.89227
H          5.68536       -3.63131       -1.87283
C          6.40332       -1.60157       -1.97500
H          7.45507       -1.89763       -2.01019
C          4.07335       -0.45588        1.16854
H          3.77268       -1.50441        1.11614
C          3.63032        1.87170        0.75544
H          2.97274        2.65577        0.37510
C          5.30687       -0.13158        1.70369
H          5.98578       -0.90038        2.07671
C          4.86789        2.21565        1.29713
H          5.15555        3.26589        1.34698
C          5.72372        1.20774        1.75419
O          6.95627        1.42678        2.25013
C          7.43169        2.74226        2.32231
H          6.80394        3.37057        2.97813
H          8.44316        2.68853        2.74437
H          7.48526        3.21357        1.32497
C          0.94985       -2.58899       -0.20091
H          1.13826       -2.62261       -1.27544
C          0.91726       -1.38041        1.87470
H          1.07448       -0.45984        2.44279
C          0.46643       -3.71973        0.44603
H          0.27051       -4.64472       -0.09963
C          0.43106       -2.50368        2.53585
H          0.21333       -2.44085        3.60167
C          0.19913       -3.68403        1.81966
O         -0.30789       -4.81165        2.36263
C         -0.71161       -4.78636        3.70539
H         -1.49072       -4.02367        3.88003
H         -1.12499       -5.77851        3.92684
H          0.13765       -4.59609        4.38461
C         -2.66834       -0.62990        1.68122
C         -2.60518       -1.95626        1.25444
H         -1.80447       -2.24912        0.57462
C         -3.68187       -0.21978        2.55019
H         -3.72070        0.81896        2.87915
C         -3.56340       -2.88980        1.65862
C         -3.50951       -4.29164        1.12329
H         -3.68405       -4.29478        0.03454
H         -2.52089       -4.74577        1.29054
H         -4.27018       -4.93296        1.59092
C         -4.62523       -1.15117        2.97730
H         -5.41823       -0.83882        3.66142
C         -4.57379       -2.47212        2.53248
H         -5.33091       -3.18814        2.86332
C         -3.64070        2.58389       -1.33792
H         -3.49852        2.04370       -2.27758
C         -3.11822        2.92080        0.98461
H         -2.54551        2.65756        1.87670
C         -4.53277        3.64396       -1.29471
H         -5.09640        3.94932       -2.17832
C         -4.01483        3.98598        1.04275
H         -4.13935        4.52527        1.98198
C         -4.73174        4.35360       -0.10176
O         -5.61993        5.36551       -0.15126
C         -5.84863        6.11976        1.00550
H         -4.93069        6.62415        1.35561
H         -6.59335        6.88171        0.74263
H         -6.24787        5.50038        1.82828
C         -1.53442       -1.15621       -2.13555
H         -0.46913       -0.92622       -2.21460
C         -3.71775       -0.65893       -1.25799
H         -4.37957       -0.05147       -0.63651
C         -2.04987       -2.24889       -2.81307
H         -1.41521       -2.88731       -3.43024
C         -4.25166       -1.75047       -1.93581
H         -5.31524       -1.96769       -1.83878
C         -3.41231       -2.56450       -2.70732
O         -3.82320       -3.65915       -3.37116
C         -5.17010       -4.03722       -3.28904
H         -5.83997       -3.26052       -3.69733
H         -5.27707       -4.94954       -3.88905
H         -5.47109       -4.25555       -2.24930
