102
Cat752.ts34.5.log	Energy: -2719094.6838962
C          1.10356        1.09167       -3.43750
H          0.91041        2.08799       -3.84325
H          2.14002        0.75545       -3.55322
C          0.06257        0.12803       -3.45702
H         -0.93471        0.41417       -3.80546
H          0.31744       -0.91313       -3.68954
H          0.11891       -0.51759       -1.92460
Co         0.31668        0.90380       -1.58389
C          3.01818       -1.15157       -1.48673
O          3.33409        1.18671       -0.43230
O          1.87995       -0.48042        0.89112
C         -1.75307        0.96002        1.14309
O         -2.71966        1.39668       -1.39587
O         -2.17596       -0.95052       -0.78199
P         -1.50682        0.56744       -0.62566
P          2.03221        0.14782       -0.65410
C          0.21468        2.64266       -1.44876
O          0.10151        3.78542       -1.39024
C          4.31603       -0.90430       -1.94053
H          4.76586        0.06290       -1.71485
C          2.43304       -2.40552       -1.76616
O          1.18553       -2.60913       -1.29794
C          0.53711       -3.82565       -1.56531
H          0.42290       -3.99037       -2.65046
H         -0.45323       -3.75899       -1.10038
H          1.08401       -4.67751       -1.12635
C          5.03099       -1.86385       -2.65504
H          6.04578       -1.64869       -2.99541
C          3.14692       -3.36906       -2.48534
H          2.70079       -4.33944       -2.70108
C          4.44029       -3.09310       -2.92501
H          4.98677       -3.85621       -3.48466
C          3.14847        2.52576       -0.24907
C          2.60904        3.00819        0.94307
H          2.33212        2.29378        1.72217
C          3.52638        3.40288       -1.26427
H          3.93756        2.99820       -2.19049
C          2.41752        4.38077        1.13194
C          1.77272        4.89347        2.38621
H          0.67416        4.84499        2.30176
H          2.06268        4.29608        3.26345
H          2.04218        5.94129        2.58012
C          3.35442        4.76983       -1.07299
H          3.64337        5.46665       -1.86332
C          2.80120        5.25547        0.10996
H          2.65813        6.33090        0.24148
C          2.86232       -1.21149        1.51120
C          3.97309       -0.57947        2.06431
H          4.07017        0.50296        1.96747
C          2.71274       -2.59626        1.60194
H          1.83880       -3.06158        1.14614
C          4.95929       -1.32431        2.72202
C          6.15928       -0.63259        3.30179
H          6.75540       -0.14791        2.51207
H          5.86208        0.15646        4.01027
H          6.81357       -1.33734        3.83360
C          3.68700       -3.33843        2.26057
H          3.57916       -4.42317        2.33818
C          4.80162       -2.71044        2.81593
H          5.56257       -3.30463        3.32848
C         -0.73589        1.71200        1.73479
H          0.12671        1.97665        1.11975
C         -2.85192        0.55788        1.93677
O         -3.78450       -0.19699        1.34680
C         -4.88097       -0.66672        2.07783
H         -4.56163       -1.31306        2.91347
H         -5.48423       -1.25579        1.37668
H         -5.49565        0.16431        2.46253
C         -0.79468        2.09676        3.07157
H          0.01277        2.68426        3.51085
C         -2.90979        0.93865        3.28233
H         -3.75172        0.63256        3.90291
C         -1.88817        1.70600        3.83785
H         -1.95076        1.99121        4.89105
C         -4.03906        1.42978       -1.03139
C         -4.90779        0.44546       -1.49350
H         -4.50220       -0.35034       -2.12076
C         -4.49718        2.46958       -0.22373
H         -3.79311        3.23082        0.11619
C         -6.25787        0.46651       -1.13224
C         -7.19006       -0.59957       -1.63311
H         -6.76836       -1.60540       -1.47984
H         -8.16347       -0.55674       -1.12440
H         -7.37386       -0.48980       -2.71432
C         -5.84076        2.49462        0.13802
H         -6.21377        3.30058        0.77488
C         -6.71312        1.50080       -0.30593
H         -7.76592        1.53067       -0.01261
C         -2.04712       -2.00624        0.05779
C         -2.98491       -3.03267       -0.09274
H         -3.75917       -2.91246       -0.85398
C         -1.03481       -2.11071        1.01323
H         -0.26803       -1.34053        1.10653
C         -2.93736       -4.17365        0.70933
C         -3.96930       -5.25523        0.56355
H         -4.44150       -5.23332       -0.42902
H         -3.53042       -6.25285        0.71294
H         -4.77049       -5.13923        1.31268
C         -0.99463       -3.24620        1.82190
H         -0.20457       -3.33081        2.57211
C         -1.92734       -4.26937        1.67737
H         -1.87259       -5.15410        2.31707
