100
Cat725.ts34.5.log	Energy: -2592436.1710561
C         -0.48271        0.92023       -3.19728
H         -0.16362        0.44524       -4.12928
H         -1.55171        1.16400       -3.18187
C          0.42374        1.79857       -2.53363
H          1.44323        1.90235       -2.91928
H          0.04775        2.74960       -2.13742
H          0.25015        1.37632       -0.98099
Co         0.27359        0.01206       -1.57853
C         -2.97058        0.77736       -0.75195
C         -2.41047       -1.91420       -1.58446
C         -1.82845       -1.10035        1.10946
C          2.01227       -1.61865        0.89646
C          3.54706       -0.55839       -1.32906
C          2.55693        1.16200        0.78686
P          1.99601       -0.22962       -0.32448
P         -1.62163       -0.48786       -0.65642
C          0.65493       -1.37754       -2.53311
O          0.89539       -2.31208       -3.17252
H         -3.84357        0.43078       -0.17435
H         -3.28873        0.79461       -1.80657
C         -2.54614        2.17226       -0.30783
H         -2.00673        2.11174        0.64875
H         -1.82064        2.58141       -1.03075
C         -3.70357        3.15816       -0.14293
H         -4.41535        2.70858        0.57522
C         -3.20128        4.46427        0.46086
H         -2.70113        4.29113        1.42713
H         -4.02513        5.17447        0.63129
H         -2.47777        4.95313       -0.21317
C         -4.44515        3.40527       -1.45153
H         -5.26768        4.12437       -1.31497
H         -4.88140        2.48087       -1.85973
H         -3.76365        3.81907       -2.21407
H         -2.42141       -1.57231       -2.63122
H         -1.67625       -2.73374       -1.54089
C         -3.76003       -2.38064       -1.14238
C         -3.89178       -3.44463       -0.23830
H         -2.99555       -3.96827        0.10606
C         -4.93307       -1.75578       -1.58928
H         -4.86552       -0.94172       -2.31455
C         -5.13805       -3.86104        0.22339
H         -5.24156       -4.69138        0.92414
C         -6.18765       -2.15694       -1.13937
H         -7.10223       -1.67460       -1.48912
C         -6.27448       -3.20413       -0.22999
F         -7.47212       -3.59238        0.20634
H         -2.73120       -1.72781        1.14238
H         -0.96365       -1.74565        1.32356
C         -1.94924        0.00096        2.11234
C         -0.82128        0.67534        2.59270
H          0.16662        0.33774        2.27939
C         -3.20883        0.44377        2.53783
H         -4.10503       -0.08100        2.19687
C         -0.93418        1.78024        3.43225
H         -0.05681        2.31345        3.80343
C         -3.34463        1.55077        3.37073
H         -4.32410        1.90825        3.69338
C         -2.20196        2.21707        3.79597
F         -2.32407        3.29192        4.57401
H          1.37860       -1.29475        1.73959
H          3.03042       -1.73767        1.30014
C          1.46014       -2.91470        0.32427
H          0.47536       -2.69298       -0.11828
H          2.07882       -3.26136       -0.52293
C          1.31359       -4.05239        1.33569
H          0.75090       -3.65235        2.20140
C          0.49705       -5.19011        0.73395
H         -0.49889       -4.84308        0.41525
H          0.35465       -6.01082        1.45368
H          0.99990       -5.60730       -0.15414
C          2.66068       -4.55370        1.84450
H          2.53233       -5.34474        2.59924
H          3.25695       -3.75072        2.30339
H          3.25362       -4.97916        1.01717
H          3.26344       -1.35975       -2.02754
H          3.67724        0.34672       -1.94259
C          4.79565       -0.91426       -0.58657
C          5.72447        0.05686       -0.18784
H          5.56890        1.10139       -0.46733
C          5.06150       -2.24766       -0.24057
H          4.36894       -3.03098       -0.55742
C          6.86127       -0.27648        0.54506
H          7.58606        0.47968        0.85178
C          6.19001       -2.60143        0.49212
H          6.39497       -3.63941        0.76052
C          7.07703       -1.60575        0.88337
F          8.15935       -1.93421        1.58642
H          2.00830        1.03706        1.73116
H          3.62035        0.99663        1.02061
C          2.31477        2.53396        0.23809
C          1.14448        3.23104        0.56704
H          0.42184        2.77917        1.24888
C          3.21190        3.14088       -0.64839
H          4.13568        2.62683       -0.92251
C          0.87213        4.48661        0.03241
H         -0.03977        5.02833        0.28921
C          2.95581        4.39516       -1.19721
H          3.65333        4.87109       -1.88858
C          1.78300        5.05332       -0.85032
F          1.52969        6.25342       -1.37014
