112
Cat704.ts34.5.log	Energy: -2253936.1810421
C         -0.94457       -0.33488       -3.33222
H         -0.60406       -1.21908       -3.87915
H         -2.01380       -0.12829       -3.45436
C         -0.04720        0.74748       -3.16718
H          0.96946        0.67181       -3.56498
H         -0.44495        1.76811       -3.22545
H         -0.04141        1.11188       -1.49894
Co        -0.23714       -0.35211       -1.43992
C         -2.45891        2.00466       -0.35129
C         -3.63995       -0.45458       -1.09293
C         -2.07400       -0.21211        1.47941
C          1.45654       -1.10588        1.35228
C          3.03437       -1.19102       -1.11416
C          2.18672        1.44601        0.14027
P          1.61465       -0.27443       -0.30131
P         -2.04707        0.19733       -0.34723
C         -0.19667       -2.07404       -1.39002
O         -0.15269       -3.23023       -1.30104
H         -3.42917        2.17488        0.14380
H         -2.59968        2.26167       -1.41453
C         -1.39173        2.89375        0.26867
H         -1.11802        2.50811        1.26637
H         -0.47280        2.82572       -0.33855
C         -1.78559        4.36573        0.41374
H         -2.72456        4.40216        0.99865
C         -0.72114        5.12719        1.19537
H         -0.54322        4.67253        2.18282
H         -1.01062        6.17736        1.35470
H          0.23886        5.12704        0.65307
C         -2.04718        5.02463       -0.93579
H         -2.31891        6.08482       -0.81596
H         -2.86533        4.53418       -1.48397
H         -1.14568        4.98107       -1.57054
H         -3.69268        0.15232       -2.01899
C         -4.93972       -0.21246       -0.32315
H         -5.02682        0.83799       -0.00536
H         -4.93335       -0.81996        0.59792
C         -6.15836       -0.60440       -1.15577
H         -7.08111       -0.43635       -0.57618
H         -6.22026        0.05810       -2.03834
C         -6.07386       -2.05374       -1.61891
H         -6.94098       -2.30842       -2.25000
H         -6.12631       -2.71750       -0.73649
C         -4.77092       -2.31680       -2.36441
H         -4.76973       -1.74042       -3.30777
H         -4.69733       -3.37834       -2.65138
C         -3.55288       -1.91560       -1.53860
H         -3.47923       -2.57183       -0.65519
H         -2.63193       -2.07229       -2.11511
H         -1.04856        0.07787        1.77238
C         -2.18800       -1.72036        1.71544
H         -1.50829       -2.26891        1.04494
H         -3.20832       -2.04941        1.45289
C         -1.91626       -2.07938        3.17218
H         -2.03739       -3.16444        3.32331
H         -0.86286       -1.84960        3.40944
C         -2.82601       -1.30351        4.11759
H         -2.58013       -1.53516        5.16678
H         -3.87060       -1.63063        3.96415
C         -2.73501        0.19772        3.86806
H         -1.71876        0.54819        4.12755
H         -3.42779        0.74094        4.53154
C         -3.02327        0.54690        2.40905
H         -4.06892        0.29054        2.17758
H         -2.93084        1.63420        2.26536
H          0.71339       -1.90111        1.18822
H          0.94583       -0.35647        1.97900
C          2.64660       -1.70420        2.09032
H          3.08790       -2.50293        1.47177
H          3.44339       -0.95814        2.24191
C          2.27842       -2.29511        3.45614
H          1.41069       -2.96498        3.30573
C          3.42877       -3.13270        4.00255
H          3.69595       -3.94825        3.31272
H          3.17379       -3.58300        4.97446
H          4.32889       -2.51244        4.14994
C          1.87513       -1.21768        4.45781
H          1.58177       -1.66055        5.42208
H          1.02562       -0.61300        4.10545
H          2.71638       -0.53020        4.64949
H          2.78216       -2.24000       -0.85890
C          4.46122       -0.91681       -0.63340
H          4.54035       -0.99411        0.45839
H          4.73705        0.11933       -0.89391
C          5.45755       -1.86978       -1.29102
H          6.47863       -1.64556       -0.94088
H          5.23628       -2.90182       -0.96295
C          5.38603       -1.79843       -2.81131
H          6.08150       -2.52336       -3.26484
H          5.72134       -0.79800       -3.14112
C          3.96408       -2.03640       -3.30514
H          3.66902       -3.07766       -3.08155
H          3.91213       -1.92847       -4.40082
C          2.97086       -1.09065       -2.64058
H          3.19331       -0.05273       -2.94717
H          1.94357       -1.29940       -2.97230
H          1.22704        1.88878        0.46300
C          2.64153        2.22934       -1.09375
H          1.90673        2.11184       -1.90362
H          3.58985        1.80658       -1.46792
C          2.84819        3.70652       -0.77624
H          3.21344        4.23735       -1.67030
H          1.87221        4.15857       -0.52440
C          3.80657        3.90123        0.39222
H          3.90722        4.97160        0.63507
H          4.81355        3.55352        0.09730
C          3.34651        3.11814        1.61593
H          2.38472        3.53225        1.97011
H          4.06199        3.24177        2.44525
C          3.16275        1.63420        1.30277
H          4.14166        1.19169        1.05855
H          2.79563        1.11533        2.20087
