90
Cat742.ts34.5.log	Energy: -2620479.7646008
C         -0.43421        0.71267       -3.63947
H         -0.08339        0.05271       -4.43713
H         -1.50725        0.92433       -3.65706
C          0.45487        1.68261       -3.11544
H          1.49677        1.69737       -3.45237
H          0.06654        2.67848       -2.87382
H          0.22089        1.54643       -1.46819
Co         0.21649        0.11041       -1.82528
C         -1.64703        0.68250        0.91258
O         -2.86945        0.73449       -1.58438
O         -2.15227       -1.54633       -0.57667
C          1.84277       -1.39365        0.73623
O          3.27186        0.27393       -0.93246
O          1.72694        1.18782        0.82333
P          1.71451        0.03773       -0.37624
P         -1.60116        0.01359       -0.78889
C          0.51829       -1.45789       -2.51213
O          0.67337       -2.50717       -2.96258
C         -1.47076       -0.14851        2.02293
H         -1.46427       -1.23099        1.89331
C         -1.56646        2.07842        1.09809
O         -1.64163        2.82891       -0.01870
C         -1.39272        4.20986        0.05314
H         -2.16436        4.73042        0.64658
H         -1.42956        4.58202       -0.97797
H         -0.39798        4.41883        0.47803
C         -1.29440        0.37905        3.29973
H         -1.16480       -0.29116        4.15136
C         -1.41300        2.61269        2.37942
H         -1.36549        3.69169        2.52398
C         -1.28512        1.75921        3.47380
H         -1.15913        2.18673        4.47170
C         -4.18912        0.71303       -1.23453
C         -4.70413        1.66843       -0.35749
H         -4.03719        2.43626        0.03334
C         -5.01718       -0.26515       -1.78658
H         -4.58344       -0.99595       -2.47131
C         -6.05250        1.61647       -0.00760
H         -6.45698        2.35882        0.68488
C         -6.36241       -0.30492       -1.43277
H         -7.00742       -1.07953       -1.85392
C         -6.88311        0.62848       -0.53596
H         -7.93784        0.59020       -0.25490
C         -3.05471       -2.21897        0.19590
C         -4.04419       -1.62287        0.98033
H         -4.14881       -0.53971        1.01588
C         -2.93587       -3.61218        0.16208
H         -2.15844       -4.04959       -0.46791
C         -4.90477       -2.42907        1.72271
H         -5.67787       -1.95220        2.32980
C         -3.80324       -4.40541        0.90697
H         -3.70396       -5.49300        0.86825
C         -4.79364       -3.81774        1.69382
H         -5.47600       -4.43855        2.27825
C          0.86818       -2.38834        0.63894
H          0.07672       -2.27965       -0.10490
C          2.85367       -1.51526        1.71647
O          3.75511       -0.52823        1.78354
C          4.87737       -0.66613        2.60979
H          4.59566       -0.71996        3.67558
H          5.49106        0.22824        2.44822
H          5.46848       -1.55785        2.34027
C          0.87932       -3.50026        1.47793
H          0.10090       -4.26018        1.38922
C          2.87513       -2.64046        2.54824
H          3.65711       -2.75550        3.29867
C          1.88981       -3.61905        2.42676
H          1.91952       -4.48663        3.09082
C          4.28812       -0.61818       -1.05135
C          4.08542       -1.94250       -1.44688
H          3.08205       -2.30122       -1.67900
C          5.58028       -0.15266       -0.79218
H          5.70447        0.88925       -0.49128
C          5.17962       -2.80035       -1.55288
H          5.01392       -3.83593       -1.85930
C          6.66415       -1.01619       -0.91163
H          7.67211       -0.64579       -0.70785
C          6.46958       -2.34777       -1.28428
H          7.32132       -3.02543       -1.37401
C          1.93776        2.51872        0.71188
C          1.80034        3.26143        1.89047
H          1.53820        2.72722        2.80422
C          2.28793        3.16338       -0.47912
H          2.44366        2.58488       -1.38865
C          1.99356        4.63844        1.87339
H          1.88706        5.20679        2.80095
C          2.46726        4.54670       -0.48354
H          2.73936        5.04160       -1.41915
C          2.31898        5.29355        0.68356
H          2.46845        6.37521        0.67027
