102
Cat780.ts34.5.log	Energy: -2719043.6074367
C         -0.41436       -2.83758       -2.30088
H          0.08772       -3.79605       -2.14222
H         -1.49859       -2.91090       -2.43652
C          0.29903       -1.78342       -2.90431
H          1.35140       -1.90815       -3.18011
H         -0.24079       -1.09921       -3.56773
H          0.06786       -0.37566       -1.83819
Co         0.14587       -1.49004       -0.88378
O         -2.00744        0.86891       -0.91688
C         -3.16811       -1.56558       -0.86054
C         -2.03345       -0.41301        1.53369
O          2.31818       -0.77166        1.26748
C          3.26877       -0.35535       -1.26744
C          1.40976        1.47769        0.11521
P          1.74221       -0.28366       -0.24493
P         -1.70184       -0.66205       -0.24851
C          0.43872       -2.81608        0.20031
O          0.60092       -3.68958        0.93746
C         -2.69590        1.91211       -0.37777
C         -3.83565        2.38304       -1.03185
H         -4.17835        1.86392       -1.92899
C         -2.23487        2.55809        0.77196
H         -1.32752        2.20662        1.26159
C         -4.54300        3.48703       -0.54531
C         -5.75916        3.98574       -1.27285
H         -6.42610        3.15743       -1.55780
H         -6.33568        4.69089       -0.65745
H         -5.48008        4.50865       -2.20262
C         -2.94008        3.65044        1.26537
H         -2.58047        4.15228        2.16707
C         -4.08682        4.11273        0.62024
H         -4.63058        4.97309        1.01946
C         -3.88975       -1.14997       -1.97535
H         -3.63873       -0.19042       -2.43008
C         -3.44414       -2.82931       -0.30428
O         -2.66202       -3.18105        0.73342
C         -2.74275       -4.47019        1.27049
H         -3.71545       -4.64692        1.76226
H         -1.93969       -4.54447        2.01367
H         -2.58439       -5.24118        0.49660
C         -4.90537       -1.94377       -2.51317
H         -5.46516       -1.60023       -3.38581
C         -4.46010       -3.62781       -0.83280
H         -4.68440       -4.60120       -0.39519
C         -5.19095       -3.17547       -1.93384
H         -5.98401       -3.80579       -2.34353
C         -0.95867       -0.53649        2.41420
H          0.01952       -0.81252        2.01490
C         -3.30073       -0.06866        2.04952
O         -4.30220        0.02859        1.16244
C         -5.52833        0.58118        1.54775
H         -6.04705       -0.04894        2.29125
H         -6.13997        0.63401        0.63843
H         -5.39904        1.59949        1.95217
C         -1.11106       -0.30874        3.78107
H         -0.25422       -0.40775        4.45036
C         -3.45736        0.16607        3.41905
H         -4.43050        0.44612        3.82283
C         -2.36249        0.04616        4.27433
H         -2.49945        0.23359        5.34254
C          3.61238       -0.81415        1.69143
C          4.47985        0.26757        1.54925
H          4.12479        1.18148        1.06992
C          4.04320       -1.99179        2.30609
H          3.33978       -2.82159        2.39685
C          5.80209        0.18055        1.99692
C          6.74308        1.32780        1.76666
H          6.24387        2.29593        1.92324
H          7.61614        1.27910        2.43296
H          7.11773        1.31726        0.72865
C          5.35025       -2.07078        2.77468
H          5.69389       -2.98714        3.26108
C          6.22766       -0.99745        2.61839
H          7.25625       -1.07662        2.97982
C          3.57877       -1.64027       -1.72307
H          2.89327       -2.45050       -1.45628
C          4.12923        0.70603       -1.61896
O          3.83666        1.92766       -1.13998
C          4.61252        3.03319       -1.50047
H          5.65065        2.94367       -1.13440
H          4.13978        3.90454       -1.02925
H          4.62970        3.18092       -2.59425
C          4.71003       -1.89680       -2.49275
H          4.93204       -2.91319       -2.82319
C          5.25307        0.45745       -2.41599
H          5.91879        1.27391       -2.69627
C          5.53944       -0.83697       -2.84427
H          6.42519       -1.01072       -3.46038
C          1.47782        1.98373        1.41199
H          1.79442        1.32346        2.22101
C          0.97118        2.32060       -0.92288
O          0.95342        1.77176       -2.15214
C          0.22771        2.40052       -3.17302
H         -0.81303        2.58888       -2.86148
H          0.22999        1.71038       -4.02626
H          0.69763        3.34986       -3.48458
C          1.14955        3.31428        1.68191
H          1.21439        3.69492        2.70321
C          0.62458        3.64572       -0.65638
H          0.27152        4.29727       -1.45588
C          0.72771        4.13921        0.64494
H          0.45280        5.17769        0.84413
