62
Cat784.ts34.5.log	Energy: -1905811.5960987
C         -1.18161       -3.61050       -0.53954
H         -0.94490       -4.46368        0.10263
H         -2.26058       -3.42400       -0.62034
C         -0.36920       -3.37608       -1.69270
H          0.52488       -3.98913       -1.85074
H         -0.86748       -3.13230       -2.63936
H         -0.18852       -1.76153       -1.64899
Co         0.00874       -2.04630       -0.19980
C         -2.76243       -0.22644       -0.93731
C         -2.66523       -1.36288        1.72033
C         -1.16452        0.93869        1.15504
C          2.56811       -0.11127        0.88477
C          3.10050       -1.73198       -1.44775
C          1.51423        0.58974       -1.71642
P          1.73005       -0.85340       -0.60393
P         -1.55954       -0.70038        0.41277
C          0.66967       -2.76047        1.23664
O          1.08980       -3.20037        2.22108
H         -2.14625        0.28404       -1.69441
H         -3.07574       -1.18401       -1.38335
C         -3.94286        0.60144       -0.54368
C         -5.13162        0.00279       -0.10820
H         -5.21372       -1.08727       -0.09776
C         -3.87263        2.00046       -0.55828
H         -2.95320        2.47990       -0.90892
C         -6.20496        0.78619        0.30815
H         -7.12693        0.30721        0.64722
C         -4.94036        2.80350       -0.14695
C         -4.84567        4.30095       -0.20808
H         -3.80070        4.64172       -0.17902
H         -5.29140        4.68621       -1.14045
H         -5.38338        4.77300        0.62742
C         -6.11094        2.17549        0.29458
H         -6.95785        2.78280        0.62569
H         -2.04640       -1.57482        2.60497
H         -3.47302       -0.66710        1.99299
H         -3.09853       -2.31507        1.38286
H         -2.06770        1.50121        1.43717
H         -0.55560        0.76563        2.05512
H         -0.57209        1.54513        0.45418
H          1.78084        0.45821        1.40165
H          2.80967       -0.96808        1.53313
C          3.77144        0.73758        0.62450
C          5.05157        0.17442        0.55965
H          5.18037       -0.89511        0.74489
C          3.63922        2.11411        0.40193
H          2.64436        2.56654        0.46333
C          6.15695        0.96967        0.26713
H          7.15155        0.51944        0.21840
C          4.73704        2.92871        0.11031
C          4.56773        4.40735       -0.08866
H          3.54261        4.65956       -0.39584
H          4.77566        4.95633        0.84497
H          5.25921        4.79286       -0.85232
C          6.00268        2.33450        0.03879
H          6.87600        2.95068       -0.19218
H          3.43124       -2.56809       -0.81478
H          2.70756       -2.15426       -2.38421
H          3.95419       -1.07377       -1.66959
H          0.75364        1.26822       -1.30456
H          2.45176        1.14479       -1.86812
H          1.14555        0.21873       -2.68385
