86
Cat765.ts34.5.log	Energy: -2680757.3360412
C          2.00288       -2.75464       -1.10596
H          1.89386       -3.14718       -2.12086
H          3.03959       -2.55495       -0.81869
C          1.07133       -3.15890       -0.12047
H          0.21900       -3.78589       -0.40475
H          1.43176       -3.34516        0.89747
H          0.61952       -1.71213        0.65011
Co         0.69438       -1.24623       -0.75553
O          2.26040        0.57211        1.53346
C          3.49694        0.73769       -0.86048
C          1.09997        2.07037       -0.25759
O         -1.90570        0.38576       -1.42715
C         -2.44320       -2.20882       -0.85535
C         -1.97804       -0.32267        1.22071
P         -1.33716       -0.82527       -0.40884
P          1.85545        0.40863       -0.10943
C          0.50387       -1.06519       -2.47206
O          0.39405       -0.94250       -3.61356
C          2.65579       -0.50094        2.27374
C          3.51396       -1.47357        1.76296
H          3.90732       -1.35966        0.75114
C          2.17941       -0.60309        3.58326
H          1.52086        0.17400        3.97440
C          3.88047       -2.58297        2.53362
C          4.77091       -3.63829        1.94498
H          5.69027       -3.19804        1.52898
H          5.05992       -4.38770        2.69457
H          4.26286       -4.16366        1.11977
C          2.55446       -1.69453        4.35887
H          2.18298       -1.77999        5.38286
C          3.38910       -2.68390        3.83864
H          3.66681       -3.54260        4.45477
C          4.41792        1.59192       -0.23920
H          4.15931        2.06314        0.71210
C          3.83744        0.12817       -2.07098
H          3.12720       -0.54780       -2.55185
C          5.65764        1.83570       -0.81715
H          6.39188        2.49362       -0.34856
C          5.07190        0.37522       -2.66867
H          5.35371       -0.08661       -3.61652
C          5.96580        1.22427       -2.02972
F          7.15092        1.45787       -2.58663
C          0.96101        2.95274        0.81852
H          1.33080        2.66208        1.80258
C          0.61646        2.44857       -1.51769
H          0.69204        1.75986       -2.36266
C          0.35240        4.19508        0.64247
H          0.22737        4.89318        1.47222
C          0.02135        3.69008       -1.70822
H         -0.36934        3.99430       -2.68037
C         -0.10426        4.54655       -0.62009
F         -0.70517        5.72614       -0.78684
C         -2.97059        1.20189       -1.15335
C         -2.78805        2.29349       -0.30767
H         -1.80545        2.44914        0.13986
C         -4.21460        0.95413       -1.73482
H         -4.34300        0.09449       -2.39361
C         -3.84380        3.16317       -0.02203
C         -3.61746        4.33914        0.88279
H         -3.20843        4.01695        1.85327
H         -2.89010        5.03766        0.43995
H         -4.54890        4.89091        1.07060
C         -5.27090        1.81721       -1.45260
H         -6.25000        1.63472       -1.90224
C         -5.09084        2.90885       -0.60391
H         -5.92983        3.57647       -0.39161
C         -2.74521       -3.21629        0.06928
H         -2.41874       -3.12059        1.10824
C         -2.85789       -2.36021       -2.18488
H         -2.60046       -1.59335       -2.91930
C         -3.46822       -4.34243       -0.31546
H         -3.71784       -5.13335        0.39410
C         -3.58571       -3.47776       -2.58021
H         -3.92257       -3.60696       -3.61037
C         -3.88285       -4.45563       -1.63711
F         -4.57796       -5.52717       -2.00982
C         -1.09486        0.20586        2.16681
H         -0.02501        0.22113        1.95770
C         -3.35307       -0.33214        1.50353
H         -4.05892       -0.73191        0.77272
C         -1.56465        0.72347        3.37018
H         -0.88940        1.14070        4.11931
C         -3.83607        0.18069        2.70065
H         -4.90242        0.18911        2.93174
C         -2.93155        0.70745        3.61750
F         -3.38828        1.20566        4.76189
