102
Cat781.ts34.5.log	Energy: -2719144.8767597
C         -0.38156        3.74706       -0.71339
H          0.63965        4.06191       -0.94457
H         -1.14691        4.05136       -1.43236
C         -0.75909        3.48711        0.60249
H         -0.03506        3.65371        1.40485
H         -1.80756        3.57665        0.89879
H         -0.34225        1.71677        1.04709
Co        -0.48416        1.69027       -0.41961
O         -1.36459       -0.79534        1.27767
O         -3.19776        0.88815        1.09352
O         -2.77943       -0.58410       -0.83465
O          1.64613       -0.45652       -1.28496
O          2.82483        1.64040       -0.74541
O          1.80762        0.29737        1.18971
P          1.41074        0.84329       -0.31513
P         -1.89328        0.33861        0.21935
C         -0.87685        1.62818       -2.11683
O         -1.15838        1.58841       -3.22913
C         -1.97497       -1.99356        1.57182
C         -3.28583       -2.05526        2.03234
H         -3.84425       -1.12775        2.16608
C         -1.22202       -3.15263        1.38404
H         -0.20336       -3.06750        1.00467
C         -3.88239       -3.29729        2.28396
C         -5.30254       -3.36033        2.76733
H         -5.39796       -2.92451        3.77489
H         -5.97412       -2.79073        2.10623
H         -5.66735       -4.39588        2.81374
C         -1.80910       -4.38469        1.64107
H         -1.23461       -5.29986        1.48082
C         -3.13140       -4.45897        2.08067
H         -3.58746       -5.43408        2.27099
C         -3.85725        2.03174        0.73765
C         -4.07930        2.36273       -0.59865
H         -3.77401        1.66793       -1.38351
C         -4.28919        2.87604        1.76153
H         -4.09981        2.59150        2.79795
C         -4.69866        3.57179       -0.93567
C         -4.92218        3.91729       -2.37933
H         -4.05223        3.64240       -2.99456
H         -5.78973        3.37044       -2.78424
H         -5.11531        4.99102       -2.51225
C         -4.92596        4.06715        1.42873
H         -5.26352        4.73766        2.22273
C         -5.11663        4.42214        0.09294
H         -5.60026        5.37036       -0.15476
C         -2.39364       -1.79041       -1.36792
C         -3.33943       -2.81161       -1.35673
H         -4.32231       -2.60264       -0.92962
C         -1.11708       -1.99925       -1.88577
H         -0.37620       -1.20040       -1.88771
C         -3.01650       -4.08380       -1.83395
C         -4.02355       -5.19361       -1.75510
H         -4.19239       -5.48518       -0.70538
H         -4.99625       -4.88445       -2.16723
H         -3.68736       -6.08470       -2.30348
C         -0.79575       -3.26556       -2.36940
H          0.20441       -3.44114       -2.77328
C         -1.72922       -4.29958       -2.34026
H         -1.45840       -5.28940       -2.71686
C          2.73272       -1.28232       -1.46410
C          2.63323       -2.59152       -1.00569
H          1.71788       -2.89782       -0.49679
C          3.87019       -0.83811       -2.13510
H          3.91632        0.18938       -2.49356
C          3.69658       -3.48333       -1.16729
C          3.60008       -4.87345       -0.61198
H          3.67959       -4.85088        0.48727
H          2.63339       -5.33785       -0.85936
H          4.40125       -5.52027       -0.99597
C          4.92665       -1.72838       -2.30844
H          5.82701       -1.39717       -2.83192
C          4.84711       -3.03374       -1.82502
H          5.68863       -3.71745       -1.96344
C          3.03151        2.93650       -0.36292
C          2.80661        3.35369        0.94940
H          2.47788        2.62408        1.69296
C          3.48251        3.83820       -1.32820
H          3.64967        3.48463       -2.34693
C          2.99782        4.69297        1.31000
C          2.69854        5.14305        2.71027
H          3.04182        4.40633        3.45155
H          3.17503        6.10730        2.93562
H          1.61245        5.26879        2.85639
C          3.69309        5.16440       -0.96634
H          4.04688        5.87768       -1.71465
C          3.44539        5.59294        0.33793
H          3.60552        6.64012        0.60629
C          2.74657       -0.62920        1.57000
C          4.09608       -0.47582        1.26698
H          4.42205        0.39735        0.70018
C          2.29176       -1.72606        2.30094
H          1.22904       -1.79551        2.53789
C          5.01634       -1.45947        1.64607
C          6.45888       -1.32153        1.25798
H          6.57599       -1.46505        0.17162
H          6.84545       -0.31967        1.49902
H          7.08805       -2.06460        1.76750
C          3.20831       -2.69454        2.69651
H          2.86560       -3.55948        3.26996
C          4.55688       -2.56965        2.36263
H          5.26747       -3.34193        2.66838
