102
Cat745.ts34.5.log	Energy: -2719091.5670316
C         -0.14602        2.29721       -2.28801
H          0.81039        2.26078       -2.81825
H         -1.03572        2.36976       -2.91897
C         -0.20780        2.76529       -0.97081
H          0.70165        3.14160       -0.49304
H         -1.13749        3.21196       -0.60558
H         -0.09877        1.46192        0.24085
Co        -0.32709        0.70261       -1.00223
C         -1.63751       -0.40557        1.90402
O         -3.14880        1.20136        0.50692
O         -2.77477       -1.19846       -0.40255
C          1.57806       -1.50215        0.61270
O          2.52638       -0.46976       -1.75965
O          2.47084        1.05252        0.37632
P          1.54935       -0.03815       -0.48349
P         -1.91602        0.11376        0.17669
C         -0.68619       -0.27468       -2.38674
O         -0.93591       -0.93037       -3.29974
C         -1.84541       -1.72787        2.29887
H         -2.24474       -2.43802        1.57314
C         -1.08458        0.49924        2.83342
O         -0.87323        1.75889        2.39674
C         -0.09529        2.63495        3.16538
H         -0.59067        2.89945        4.11525
H          0.02794        3.54630        2.56650
H          0.89913        2.20750        3.38071
C         -1.55443       -2.14965        3.59435
H         -1.73083       -3.18758        3.88207
C         -0.78317        0.07794        4.13135
H         -0.36335        0.77590        4.85588
C         -1.03061       -1.24152        4.50719
H         -0.79813       -1.55792        5.52692
C         -3.58905        2.08705       -0.43454
C         -3.77119        1.71661       -1.76694
H         -3.57797        0.68773       -2.07280
C         -3.85976        3.39302        0.00504
C         -3.66400        3.74333        1.44774
H         -4.42389        3.25259        2.07774
H         -2.68977        3.38115        1.80720
H         -3.73509        4.82817        1.60646
C         -4.20868        2.66356       -2.69151
H         -4.34767        2.37245       -3.73523
C         -4.30523        4.31813       -0.94165
H         -4.51659        5.34082       -0.61701
C         -4.47325        3.96749       -2.28144
H         -4.81601        4.71309       -3.00219
C         -4.09210       -1.53018       -0.22248
C         -4.83104       -1.17220        0.90595
H         -4.37127       -0.57452        1.69121
C         -4.66895       -2.28620       -1.25878
C         -3.85808       -2.65792       -2.46137
H         -4.47359       -3.18797       -3.20082
H         -3.41131       -1.77543       -2.94283
H         -3.01254       -3.30747       -2.18675
C         -6.16231       -1.57036        1.01205
H         -6.73656       -1.28340        1.89604
C         -6.00367       -2.67299       -1.11976
H         -6.46286       -3.26056       -1.91962
C         -6.75355       -2.32279        0.00184
H         -7.79721       -2.63448        0.08231
C          1.86806       -1.40987        1.97526
H          2.21586       -0.45973        2.38412
C          1.05743       -2.71326        0.11180
O          0.71948       -2.71246       -1.18939
C         -0.00884       -3.78572       -1.72162
H          0.59783       -4.70668       -1.76693
H         -0.29461       -3.48651       -2.73703
H         -0.92134       -3.97843       -1.13260
C          1.72935       -2.51113        2.81745
H          1.97027       -2.41991        3.87782
C          0.91931       -3.82173        0.95178
H          0.53919       -4.76630        0.56223
C          1.26985       -3.71641        2.29723
H          1.16126       -4.58861        2.94637
C          3.88085       -0.37621       -1.91987
C          4.45345        0.87460       -2.15051
H          3.80294        1.75098       -2.17834
C          4.65924       -1.54258       -1.89776
C          4.02679       -2.87906       -1.65910
H          3.86140       -3.05656       -0.58256
H          3.04054       -2.93778       -2.13871
H          4.66616       -3.69001       -2.03473
C          5.82990        0.99068       -2.30872
H          6.27780        1.97452       -2.46441
C          6.03871       -1.39935       -2.07752
H          6.66392       -2.29669       -2.06252
C          6.62774       -0.15113       -2.26646
H          7.70990       -0.07154       -2.39098
C          3.75845        1.10924        0.84090
C          4.57033       -0.00561        1.04365
H          4.19487       -1.00303        0.82327
C          4.22966        2.40489        1.11263
C          3.34460        3.58707        0.86569
H          3.83804        4.52084        1.16751
H          3.07932        3.66659       -0.20120
H          2.39425        3.49831        1.41400
C          5.87448        0.16308        1.50069
H          6.50880       -0.71560        1.63621
C          5.53781        2.54281        1.58170
H          5.91530        3.54765        1.79096
C          6.36393        1.43722        1.77359
H          7.38689        1.57227        2.13117
