88
Cat708.ts34.5.log	Energy: -3398143.3601831
C         -1.00216       -1.51666       -3.02711
H         -0.92192       -2.57077       -3.30762
H         -2.01417       -1.11092       -3.13525
C          0.11497       -0.66853       -3.24070
H          1.05948       -1.08589       -3.60369
H         -0.05663        0.34547       -3.62094
H          0.18908        0.21115       -1.79352
Co        -0.10196       -1.13868       -1.26582
C         -1.80617       -0.56596        1.68382
C         -1.93192        1.54457       -0.22950
C         -3.45079       -0.83374       -0.59288
C          2.20066       -1.71953        1.19093
C          3.16651       -0.43339       -1.15448
C          1.51186        1.05532        0.66036
P          1.63309       -0.58405       -0.15309
P         -1.75189       -0.28237       -0.14330
C         -0.01393       -2.83561       -0.91671
O          0.03447       -3.96599       -0.67578
H         -2.73180       -0.12213        2.08856
H         -0.95786        0.00054        2.09866
C         -1.71447       -2.03192        2.07116
H         -2.49717       -2.60320        1.54391
H         -0.75690       -2.44811        1.71514
C         -1.85094       -2.29544        3.57352
H         -2.85803       -1.95418        3.87919
C         -1.75648       -3.79101        3.85146
H         -2.50554       -4.35505        3.27464
H         -1.91203       -4.01428        4.91820
H         -0.76280       -4.17825        3.56984
C         -0.82906       -1.52281        4.40116
H         -0.93051       -1.75580        5.47228
H         -0.93992       -0.43341        4.29077
H          0.19945       -1.78888        4.10538
C         -2.05156        2.38167        0.88379
H         -2.08984        1.96546        1.89100
C         -1.88401        2.13468       -1.50145
H         -1.79112        1.49916       -2.38599
C         -2.09418        3.76807        0.74243
H         -2.14887        4.41758        1.61697
C         -1.93601        3.51320       -1.66124
H         -1.89209        3.96675       -2.65279
C         -2.02449        4.32616       -0.52946
Cl        -2.01282        6.04813       -0.71146
C         -3.63246       -2.15303       -1.02568
H         -2.76241       -2.80321       -1.14322
C         -4.57313       -0.00507       -0.47581
H         -4.45453        1.03132       -0.14985
C         -4.90182       -2.64442       -1.31669
H         -5.04169       -3.67395       -1.65002
C         -5.84719       -0.47870       -0.77607
H         -6.72104        0.16932       -0.69030
C         -6.00403       -1.80025       -1.19197
Cl        -7.58615       -2.39680       -1.56581
H          2.17994       -2.71906        0.72522
H          1.38873       -1.73316        1.93623
C          3.56042       -1.46073        1.82037
H          4.31219       -1.37068        1.02002
H          3.56486       -0.48785        2.34318
C          4.02264       -2.55003        2.79300
H          4.06095       -3.49981        2.22696
C          5.43112       -2.24323        3.28855
H          6.13609       -2.12794        2.45067
H          5.81097       -3.04379        3.94179
H          5.44673       -1.30510        3.86831
C          3.06230       -2.74362        3.96094
H          3.44577       -3.49475        4.66840
H          2.07018       -3.08616        3.63076
H          2.92633       -1.80205        4.52042
C          3.38859       -1.41575       -2.12695
H          2.62703       -2.18451       -2.28603
C          4.13641        0.55690       -0.96350
H          3.98925        1.32860       -0.20465
C          4.55347       -1.42268       -2.88722
H          4.72805       -2.19155       -3.64157
C          5.29954        0.57268       -1.72905
H          6.05435        1.34744       -1.58473
C          5.50234       -0.42037       -2.68628
Cl         6.94746       -0.40719       -3.63862
C          1.40205        1.21131        2.04582
H          1.47722        0.34776        2.70932
C          1.39730        2.19660       -0.14818
H          1.45454        2.09810       -1.23547
C          1.18482        2.46613        2.61423
H          1.09143        2.58064        3.69538
C          1.19799        3.45540        0.40288
H          1.09738        4.33749       -0.23108
C          1.08563        3.58110        1.78783
Cl         0.78168        5.13813        2.48042
