62
Cat730.ts34.5.log	Energy: -2139562.3612436
C          0.41083       -3.56096        0.44350
H         -0.43093       -4.23132        0.24926
H          1.33164       -3.80480       -0.09414
C          0.50656       -2.92876        1.70515
H         -0.27949       -3.07494        2.45305
H          1.50131       -2.79855        2.14565
H          0.84808       -1.29635        1.31077
Co        -0.13467       -1.61820        0.26435
C          2.08781        0.78172       -0.70065
O          2.81128       -1.85585       -0.72436
O          1.37168       -0.83729       -2.57014
C         -1.72472        1.34791        0.10239
O         -2.28549       -0.18061        2.24522
O         -0.04661        0.91926        2.13003
P         -1.04952        0.02877        1.17159
P          1.46453       -0.92136       -0.91554
C         -1.44795       -2.09705       -0.76423
O         -2.28699       -2.45597       -1.47393
C          1.91875        1.75770       -1.68346
H          1.50633        1.45350       -2.64639
C          2.61590        1.15843        0.55122
O          2.81964        0.15898        1.42856
C          3.12368        0.46147        2.76087
H          4.10918        0.95032        2.85464
H          3.15070       -0.49460        3.29861
H          2.34780        1.10197        3.20964
C          2.24948        3.09068       -1.43906
H          2.11074        3.84118       -2.21992
C          2.92018        2.49759        0.81154
H          3.31335        2.79794        1.78297
C          2.73547        3.45512       -0.18731
H          2.98326        4.49845        0.02387
C          4.05245       -1.47319       -1.26744
H          3.94531       -1.09679       -2.29807
H          4.52832       -0.69214       -0.65131
H          4.70083       -2.36136       -1.27658
C          0.80078       -1.91646       -3.27175
H          1.27753       -2.87462       -3.00368
H         -0.28114       -1.99829       -3.08548
H          0.96397       -1.73168       -4.34298
C         -0.98231        2.49731       -0.16934
H         -0.02556        2.64195        0.33695
C         -2.93566        1.13987       -0.58544
O         -3.58903       -0.00341       -0.29677
C         -4.68610       -0.38663       -1.07906
H         -5.53505        0.30863       -0.95875
H         -4.98398       -1.38299       -0.73081
H         -4.41604       -0.45362       -2.14624
C         -1.43145        3.44366       -1.09035
H         -0.83285        4.33435       -1.29080
C         -3.38796        2.08145       -1.51360
H         -4.32443        1.92712       -2.05001
C         -2.63322        3.23017       -1.75663
H         -2.99576        3.96042       -2.48439
C         -2.96131       -1.40352        2.38366
H         -2.42927       -2.20736        1.84705
H         -3.02371       -1.65885        3.45306
H         -3.97848       -1.31848        1.97117
C         -0.56047        1.88171        3.02551
H         -1.28747        2.55293        2.53944
H         -1.05380        1.39699        3.88149
H          0.28994        2.48125        3.38178
