100
Cat711.ts34.5.log	Energy: -2343462.2136806
C          0.98579        1.30795        3.27720
H          0.91258        0.73362        4.20549
H          1.95628        1.79855        3.14001
C         -0.18155        1.94777        2.77913
H         -1.14399        1.79806        3.28022
H         -0.08408        2.95869        2.36413
H         -0.12287        1.57716        1.14747
Co         0.26476        0.26829        1.71165
C          2.51745        1.98687       -0.24222
C          3.58315       -0.28411        1.03104
C          1.88440       -0.68965       -1.14062
C         -1.64470       -2.01005        0.02035
C         -3.07706       -0.00399        1.46720
C         -1.71580        0.69717       -0.96170
P         -1.48152       -0.26086        0.58343
P          1.96647        0.33703        0.38543
C          0.38152       -1.25939        2.52394
O          0.48562       -2.30362        3.01223
H          3.33562        1.84241       -0.96874
H          2.97405        2.47111        0.63627
C          1.41420        2.85995       -0.82418
H          0.82117        2.29123       -1.55975
H          0.69787        3.12069       -0.02606
C          1.92227        4.14592       -1.48157
H          2.63080        3.85179       -2.28006
C          0.77156        4.89989       -2.13612
H          0.24440        4.26790       -2.86672
H          1.12609        5.80448       -2.65453
H          0.03338        5.21559       -1.38040
C          2.67119        5.04110       -0.50054
H          3.00993        5.96840       -0.98817
H          3.55949        4.54663       -0.08014
H          2.01757        5.32719        0.34112
C          3.73247       -0.58083        2.38564
H          2.88037       -0.46401        3.05629
C          4.67673       -0.45831        0.17114
H          4.55940       -0.25611       -0.89810
C          4.96099       -1.03504        2.86805
H          5.07235       -1.27121        3.92926
C          5.91195       -0.91005        0.63759
C          7.07516       -1.09431       -0.29407
H          6.79664       -0.87095       -1.33348
H          7.91413       -0.43446       -0.02026
H          7.45399       -2.12811       -0.26057
C          6.03880       -1.19527        2.00508
H          6.99638       -1.55601        2.39210
C          1.96879       -0.19396       -2.44514
H          2.10481        0.87276       -2.62860
C          1.71071       -2.06699       -0.95234
H          1.64893       -2.45768        0.06900
C          1.86183       -1.06495       -3.52955
H          1.91474       -0.67001       -4.54739
C          1.62356       -2.95537       -2.02677
C          1.48327       -4.43012       -1.78297
H          0.77200       -4.63573       -0.96859
H          1.13736       -4.95905       -2.68215
H          2.44928       -4.87064       -1.48637
C          1.68719       -2.43090       -3.32536
H          1.60360       -3.10467       -4.18247
H         -1.44337       -2.62183        0.91483
H         -0.78376       -2.17436       -0.64666
C         -2.95819       -2.41915       -0.62874
H         -3.74420       -2.43505        0.14311
H         -3.27546       -1.65988       -1.36568
C         -2.90574       -3.77966       -1.33126
H         -2.41503       -4.49370       -0.64275
C         -4.31356       -4.29125       -1.61342
H         -4.89709       -4.39845       -0.68588
H         -4.29397       -5.27077       -2.11630
H         -4.85728       -3.59152       -2.27024
C         -2.08657       -3.71851       -2.61628
H         -1.99717       -4.71208       -3.08256
H         -1.06752       -3.34212       -2.44521
H         -2.56748       -3.04798       -3.34815
C         -3.07705       -0.14986        2.85677
H         -2.13098       -0.34761        3.36776
C         -4.28492        0.26687        0.81101
H         -4.29386        0.38807       -0.27518
C         -4.26968       -0.03916        3.57051
H         -4.26563       -0.15706        4.65695
C         -5.48602        0.39178        1.51346
C         -6.77433        0.68066        0.79803
H         -6.61152        0.82622       -0.27901
H         -7.49242       -0.14598        0.92122
H         -7.25680        1.58830        1.19381
C         -5.46113        0.23298        2.90589
H         -6.39078        0.32880        3.47443
C         -1.33499        0.19140       -2.20761
H         -0.94706       -0.82342       -2.30502
C         -2.17810        2.01749       -0.87916
H         -2.45987        2.42537        0.09648
C         -1.42791        0.99597       -3.34280
H         -1.11623        0.59603       -4.31081
C         -2.29819        2.82734       -2.00987
C         -2.85403        4.21754       -1.90366
H         -2.68131        4.64480       -0.90542
H         -2.40430        4.89092       -2.64749
H         -3.94331        4.21844       -2.07645
C         -1.90985        2.29762       -3.24837
H         -1.98495        2.91751       -4.14630
