102
Cat774.ts34.5.log	Energy: -2719149.1296423
C          0.66320       -3.49664       -0.56619
H         -0.34076       -3.91612       -0.45983
H          1.19668       -3.81036       -1.46709
C          1.40714       -3.14420        0.57215
H          1.00232       -3.37732        1.56259
H          2.49965       -3.12993        0.52135
H          0.82464       -1.58614        1.06907
Co         0.69104       -1.45645       -0.39988
O          3.45351       -0.26014        0.63001
O          2.45002        1.26033       -0.99361
O          1.45399        1.04136        1.34146
O         -1.83876        0.50175       -0.47458
O         -2.38158       -1.96617       -0.92265
O         -1.98447       -1.07421        1.44152
P         -1.32132       -1.00442       -0.08962
P          1.93521        0.11486        0.08083
C          0.91476       -1.42059       -2.12725
O          1.06197       -1.41059       -3.26747
C          4.22970       -1.21091        0.02489
C          4.26701       -1.35433       -1.36053
H          3.70532       -0.66102       -1.98891
C          4.98007       -2.05180        0.84816
H          4.92973       -1.91904        1.93024
C          5.02713       -2.37237       -1.94835
C          5.03990       -2.52031       -3.44196
H          5.64204       -1.72490       -3.91100
H          5.46559       -3.48583       -3.74871
H          4.02298       -2.44155       -3.85545
C          5.75450       -3.04912        0.26500
H          6.34338       -3.71461        0.90081
C          5.76921       -3.21950       -1.11989
H          6.36708       -4.01939       -1.56378
C          1.70412        2.26311       -1.56846
C          0.41210        2.05148       -2.03818
H         -0.05584        1.07766       -1.91415
C          2.33380        3.51303       -1.67856
C          3.72453        3.70363       -1.16118
H          3.75906        3.56310       -0.06969
H          4.41419        2.96353       -1.59475
H          4.09563        4.71099       -1.39293
C         -0.29179        3.10558       -2.61658
H         -1.31369        2.94066       -2.96450
C          1.60608        4.54882       -2.26933
H          2.07759        5.53104       -2.36138
C          0.30403        4.35788       -2.73342
H         -0.24186        5.18900       -3.18540
C          2.00785        2.23563        1.75885
C          3.28643        2.25396        2.31752
H          3.84579        1.32107        2.37831
C          1.22806        3.39558        1.65522
C         -0.15615        3.37632        1.08316
H         -0.21227        3.99929        0.17723
H         -0.46978        2.36448        0.80664
H         -0.88298        3.77792        1.80631
C          3.82332        3.45597        2.76715
H          4.82633        3.47289        3.19937
C          1.79899        4.58922        2.11490
H          1.21284        5.50904        2.03621
C          3.07828        4.63008        2.66070
H          3.49360        5.57908        3.00734
C         -2.98559        1.20789       -0.18562
C         -3.32085        1.53116        1.12473
H         -2.68645        1.17688        1.93609
C         -3.75709        1.65819       -1.25537
H         -3.46691        1.39512       -2.27283
C         -4.46829        2.28684        1.39161
C         -4.82775        2.61852        2.81130
H         -5.00310        1.70426        3.40049
H         -4.01457        3.17096        3.30843
H         -5.73630        3.23422        2.86466
C         -4.89666        2.40836       -0.99269
H         -5.51714        2.75238       -1.82331
C         -5.25515        2.71690        0.31946
H         -6.15577        3.30467        0.51407
C         -3.68196       -1.65524       -1.24584
C         -4.66881       -1.57366       -0.26671
H         -4.40031       -1.73540        0.77782
C         -3.96237       -1.43954       -2.60248
C         -2.85789       -1.51051       -3.61148
H         -2.34374       -2.48299       -3.57458
H         -3.23861       -1.35247       -4.62947
H         -2.08579       -0.74979       -3.41018
C         -5.97156       -1.24932       -0.63684
H         -6.74589       -1.16598        0.12876
C         -5.28092       -1.13053       -2.94590
H         -5.52397       -0.95662       -3.99781
C         -6.27863       -1.02787       -1.97732
H         -7.29922       -0.77384       -2.27207
C         -1.58690       -2.07886        2.28924
C         -1.89162       -3.40803        1.99796
H         -2.45250       -3.63718        1.08993
C         -0.87700       -1.72083        3.44569
C         -0.57893       -0.28227        3.73521
H         -0.03100        0.18822        2.90534
H         -1.50909        0.29129        3.87625
H          0.02339       -0.18172        4.64804
C         -1.46998       -4.41777        2.86084
H         -1.70266       -5.45976        2.63035
C         -0.46996       -2.75498        4.29416
H          0.08893       -2.50006        5.19866
C         -0.75344       -4.09079        4.00963
H         -0.41632       -4.87578        4.69011
