110
Cat782.ts34.5.log	Energy: -2628990.1820679
C         -0.61836        3.14813       -2.23022
H         -0.03691        3.31259       -3.14162
H         -1.70415        3.17956       -2.36061
C         -0.06221        3.55320       -0.99354
H          0.95817        3.94817       -0.95909
H         -0.72871        4.00140       -0.24807
H         -0.32679        2.22560        0.01311
Co         0.02627        1.50974       -1.23271
O         -3.06643        1.64705       -0.87232
C         -2.46932       -0.75908       -1.98572
C         -1.95414       -0.25721        0.85334
O          1.45835       -1.01257        0.15105
C          3.30438        0.92317       -0.46871
C          1.49828        1.13759        1.77788
P          1.51868        0.66556       -0.02301
P         -1.80773        0.52802       -0.82983
C          0.68698        0.92995       -2.72139
O          1.14778        0.57376       -3.72023
C         -4.29945        1.63290       -0.29478
C         -4.56353        2.59357        0.68210
H         -3.76020        3.28334        0.95303
C         -5.30352        0.74794       -0.69489
H         -5.10900        0.01779       -1.47998
C         -5.81343        2.66745        1.30265
C         -6.06484        3.67340        2.38861
H         -7.13831        3.87728        2.50926
H         -5.68889        3.30666        3.35890
H         -5.55529        4.62619        2.18249
C         -6.54730        0.81315       -0.07580
H         -7.33175        0.11427       -0.37550
C         -6.80411        1.75925        0.91463
H         -7.78799        1.79764        1.38916
H         -3.35660       -1.23109       -1.53566
H         -2.81339       -0.16898       -2.84883
C         -1.48058       -1.79549       -2.44102
C         -1.08267       -1.84085       -3.77983
H         -1.45838       -1.08986       -4.47893
C         -0.95997       -2.75930       -1.56539
H         -1.22304       -2.73160       -0.50654
C         -0.21721       -2.83722       -4.22862
H          0.08238       -2.85876       -5.27923
C         -0.09923       -3.77045       -1.99630
C          0.44601       -4.78449       -1.03467
H          1.54032       -4.68932       -0.94787
H          0.01891       -4.65733       -0.03021
H          0.23043       -5.81066       -1.37180
C          0.26153       -3.80188       -3.34937
H          0.93805       -4.58248       -3.70813
H         -1.11686       -0.97688        0.84627
H         -1.65135        0.54886        1.53921
C         -3.23182       -0.87843        1.33913
C         -3.99122       -0.22795        2.31765
H         -3.64334        0.72525        2.72179
C         -3.69823       -2.10781        0.85396
H         -3.11025       -2.66036        0.11877
C         -5.19340       -0.77006        2.76068
H         -5.78004       -0.23974        3.51446
C         -4.90460       -2.66674        1.28426
C         -5.38729       -3.97562        0.72810
H         -4.65525       -4.41422        0.03542
H         -5.57681       -4.70676        1.52968
H         -6.33403       -3.84798        0.17866
C         -5.65438       -1.97674        2.24324
H         -6.60341       -2.39384        2.59157
C          2.40327       -1.89559       -0.28370
C          3.12341       -2.62206        0.66475
H          2.92577       -2.43796        1.72166
C          2.62582       -2.09379       -1.64753
H          2.03994       -1.54101       -2.38354
C          4.08098       -3.56038        0.26962
C          4.82884       -4.35630        1.30040
H          4.89398       -3.81203        2.25387
H          4.31966       -5.31313        1.50469
H          5.84885       -4.59510        0.96523
C          3.58578       -3.02146       -2.04412
H          3.76479       -3.18173       -3.11005
C          4.30816       -3.74917       -1.09973
H          5.05990       -4.47192       -1.42803
H          3.94820        0.48998        0.31132
H          3.47451        0.34516       -1.38842
C          3.57306        2.37775       -0.70830
C          3.34126        2.93530       -1.97244
H          3.02999        2.29198       -2.79752
C          3.98449        3.22353        0.32709
H          4.18637        2.80160        1.31588
C          3.50080        4.30257       -2.17557
H          3.31071        4.72831       -3.16377
C          4.15238        4.60037        0.14064
C          4.62631        5.47461        1.26561
H          4.33951        5.06516        2.24523
H          5.72549        5.56580        1.25790
H          4.21507        6.49144        1.18609
C          3.89405        5.13207       -1.12679
H          4.00850        6.20645       -1.29485
H          1.94205        2.14538        1.81422
H          0.43603        1.25189        2.03250
C          2.15951        0.17464        2.71181
C          1.40036       -0.83731        3.31524
H          0.32604       -0.89094        3.12341
C          3.53231        0.21901        2.97446
H          4.13816        1.01375        2.53129
C          2.00596       -1.77180        4.14824
H          1.40204       -2.55187        4.61798
C          4.16397       -0.72507        3.79265
C          5.65012       -0.68097        3.99940
H          6.17452       -1.16709        3.15951
H          6.02029        0.35327        4.05713
H          5.94663       -1.20344        4.91999
C          3.38016       -1.72251        4.38118
H          3.85010       -2.46417        5.03287
