100
Cat718.ts34.5.log	Energy: -2343460.9755793
C          0.15152        0.49067        3.70870
H         -0.34152       -0.03203        4.53290
H          1.24273        0.52642        3.80992
C         -0.51327        1.61033        3.12120
H         -1.52337        1.86568        3.46252
H          0.08159        2.50889        2.91203
H         -0.33983        1.38739        1.55012
Co        -0.59058       -0.03552        1.93059
C          2.76186        0.43405        1.34596
C          1.81866       -2.26939        1.37342
C          1.31835       -0.58196       -0.97342
C         -2.33211       -0.65639       -0.99049
C         -3.88257       -0.42025        1.43737
C         -2.82086        1.91097        0.18101
P         -2.29432        0.18940        0.64861
P          1.25792       -0.54144        0.91344
C         -1.13058       -1.54468        2.56777
O         -1.45874       -2.58161        2.96488
H          3.60450        0.07304        0.73586
H          3.00006        0.18701        2.39299
C          2.58862        1.93976        1.16155
H          1.90070        2.14292        0.32617
H          2.10463        2.37115        2.05510
C          3.90375        2.67321        0.89338
H          4.35946        2.19690        0.00566
C          3.64580        4.13375        0.54831
H          3.00752        4.21772       -0.34437
H          4.58501        4.67048        0.34207
H          3.13974        4.65521        1.37894
C          4.87864        2.54133        2.05745
H          5.82728        3.05846        1.84443
H          5.11847        1.48894        2.27337
H          4.45642        2.98371        2.97601
H          0.94997       -2.91886        1.18589
H          1.93334       -2.22332        2.46830
C          3.04253       -2.81420        0.71312
C          4.32805       -2.49164        1.17196
H          4.43860       -1.87191        2.06476
C          2.93612       -3.64416       -0.41193
H          1.94451       -3.93599       -0.76810
C          5.46304       -2.95048        0.50841
H          6.45390       -2.68121        0.88224
C          4.06921       -4.10808       -1.07737
H          3.95779       -4.75062       -1.95398
C          5.33934       -3.75427       -0.62524
H          6.22987       -4.11310       -1.14626
H          0.35407       -0.16802       -1.29104
H          1.32811       -1.64451       -1.26019
C          2.42226        0.15663       -1.66780
C          3.71002       -0.37933       -1.80332
H          3.92466       -1.37735       -1.41771
C          2.17752        1.43322       -2.18954
H          1.17698        1.86327       -2.10331
C          4.72211        0.34790       -2.42694
H          5.71842       -0.09141       -2.51998
C          3.18840        2.16255       -2.81052
H          2.96991        3.15793       -3.20574
C          4.46927        1.62435       -2.92851
H          5.26512        2.19401       -3.41421
H         -1.63700       -0.10116       -1.64174
H         -3.33667       -0.54315       -1.42893
C         -1.90578       -2.11300       -0.89891
H         -0.96465       -2.15773       -0.32649
H         -2.63409       -2.68782       -0.29805
C         -1.71161       -2.81127       -2.24518
H         -0.98443       -2.20966       -2.82323
C         -1.11354       -4.19757       -2.03936
H         -0.16028       -4.14408       -1.49068
H         -0.92273       -4.70305       -2.99851
H         -1.79457       -4.83682       -1.45349
C         -3.00355       -2.88901       -3.05123
H         -2.83774       -3.38300       -4.02106
H         -3.42703       -1.89393       -3.25384
H         -3.76694       -3.47198       -2.50848
H         -3.95658        0.14810        2.37774
H         -3.67696       -1.46236        1.72546
C         -5.13818       -0.31677        0.63252
C         -5.52101       -1.34676       -0.23844
H         -4.91524       -2.25498       -0.29142
C         -5.95206        0.82271        0.70098
H         -5.68682        1.62879        1.39060
C         -6.66250       -1.23419       -1.02856
H         -6.93884       -2.05156       -1.69922
C         -7.09564        0.93850       -0.08642
H         -7.71520        1.83564       -0.01291
C         -7.45271       -0.08763       -0.95987
H         -8.34914        0.00186       -1.57777
H         -3.01588        2.42404        1.13580
H         -3.78118        1.82888       -0.35102
C         -1.84318        2.69539       -0.63845
C         -1.86963        2.63305       -2.03906
H         -2.60914        1.99706       -2.53288
C         -0.90261        3.53877       -0.03296
H         -0.87614        3.61626        1.05603
C         -0.99074        3.39296       -2.80856
H         -1.03471        3.33325       -3.89864
C         -0.02528        4.30275       -0.79903
H          0.69137        4.96064       -0.30286
C         -0.06656        4.23480       -2.19072
H          0.61711        4.83863       -2.79209
