64
Cat701.ts34.5.log	Energy: -1952675.6386651
C         -3.23649       -1.80608       -0.83154
H         -3.40289       -2.83026       -0.48667
H         -4.03289       -1.10296       -0.57210
C         -2.46417       -1.59894       -1.99909
H         -2.00358       -2.45290       -2.50561
H         -2.76757       -0.81166       -2.69814
H         -1.37780       -0.36743       -1.56551
Co        -1.40355       -1.13267       -0.30419
C         -1.46309        2.31726       -0.23148
O         -3.52286        0.90086        0.82747
O         -1.27853        1.15474        2.05896
C          1.74231       -0.64422        0.70410
O          1.42160       -2.64073       -0.93288
O          1.10910       -0.31818       -1.98525
P          0.65649       -1.19520       -0.65664
P         -1.89615        0.72903        0.57120
C         -1.39366       -2.30745        0.97129
O         -1.40923       -3.08100        1.82807
H         -1.91203        3.14813        0.33693
H         -1.95292        2.28144       -1.21875
C          0.04000        2.51307       -0.36055
H          0.46744        2.55616        0.65477
H          0.47908        1.63245       -0.85702
C          0.48170        3.75328       -1.13956
H          0.02679        4.64141       -0.66110
C          1.99763        3.89525       -1.05303
H          2.33744        3.95582       -0.00708
H          2.35293        4.79563       -1.57781
H          2.49346        3.02324       -1.51263
C          0.02531        3.70822       -2.59364
H          0.38665        4.58549       -3.15245
H         -1.07121        3.69071       -2.68447
H          0.41484        2.80460       -3.09202
C         -4.08907        2.03521        1.43964
H         -3.44633        2.42481        2.24639
H         -4.27262        2.84086        0.70818
H         -5.05484        1.73579        1.87240
C         -1.23030        0.19457        3.08667
H         -2.19255       -0.33048        3.20811
H         -0.44826       -0.55955        2.90141
H         -0.99634        0.72303        4.02202
H          1.46943       -1.32224        1.53281
H          1.35210        0.34558        0.98493
C          3.25021       -0.62524        0.51724
H          3.57897       -1.60858        0.14396
H          3.52311        0.11401       -0.25476
C          4.02390       -0.28627        1.79486
H          3.74040       -1.03243        2.56127
C          5.52360       -0.40968        1.55241
H          5.79147       -1.41447        1.19024
H          6.09777       -0.21794        2.47210
H          5.85856        0.31821        0.79432
C          3.67070        1.09701        2.33192
H          4.25724        1.33425        3.23286
H          2.60693        1.18159        2.60053
H          3.88706        1.87454        1.57920
C          0.76628       -3.63488       -1.68462
H         -0.28680       -3.73225       -1.37140
H          0.79249       -3.40979       -2.76531
H          1.28758       -4.58625       -1.50931
C          2.34428       -0.43469       -2.65242
H          3.00378        0.41228       -2.40217
H          2.85771       -1.37535       -2.40178
H          2.15067       -0.41490       -3.73587
