86
Cat732.ts34.5.log	Energy: -2336770.2279481
C         -0.31501       -2.27434       -2.87036
H         -0.00966       -3.32428       -2.84145
H         -1.36466       -2.12140       -3.14137
C          0.64491       -1.30100       -3.25853
H          1.68638       -1.60059       -3.41418
H          0.33486       -0.49323       -3.93292
H          0.30634       -0.11453       -2.17090
Co         0.30751       -1.25779       -1.24970
C         -2.22986        1.06174       -0.92017
O         -2.85077       -1.47562       -0.49303
O         -1.31664       -0.35018        1.24837
C          1.86572        0.24813        1.31508
O          3.39421       -0.89813       -0.66510
O          2.15602        1.23466       -1.27391
P          1.92103       -0.17779       -0.47354
P         -1.49215       -0.54491       -0.38254
C          0.64785       -2.70669       -0.35829
O          0.86064       -3.65951        0.26081
C         -1.32146        1.96323       -1.48366
H         -0.27596        1.65841       -1.57818
C         -3.57384        1.48178       -0.77291
O         -4.43831        0.64772       -0.16679
C         -5.78104        1.00987       -0.03550
H         -5.90885        1.91312        0.58783
H         -6.28223        0.16548        0.45529
H         -6.25810        1.18436       -1.01575
C         -1.69975        3.23591       -1.90865
H         -0.95873        3.90889       -2.34560
C         -3.96148        2.75191       -1.22174
H         -4.99790        3.07475       -1.12494
C         -3.02912        3.62104       -1.78478
H         -3.35629        4.60691       -2.12506
C         -2.89575       -2.78848        0.06254
H         -2.04354       -2.91845        0.75524
C         -2.80149       -3.83045       -1.03407
H         -1.83862       -3.76263       -1.55194
H         -3.60692       -3.67778       -1.76913
H         -2.89921       -4.84190       -0.61184
C         -4.19392       -2.90705        0.84098
H         -4.24415       -2.16797        1.65197
H         -5.04746       -2.73448        0.16733
H         -4.29353       -3.91096        1.28038
C         -2.36004       -0.02538        2.16662
H         -3.32823       -0.25171        1.69267
C         -2.31984        1.45143        2.51214
H         -2.39611        2.07056        1.60777
H         -1.37783        1.69136        3.02617
H         -3.15562        1.71082        3.18029
C         -2.15794       -0.90463        3.38484
H         -2.21984       -1.96845        3.11354
H         -1.16033       -0.72102        3.81272
H         -2.91838       -0.69536        4.15284
C          2.11715       -0.77060        2.23904
H          2.40034       -1.76042        1.87650
C          1.37530        1.47805        1.80446
O          0.98147        2.38849        0.89758
C          0.51497        3.63982        1.31442
H         -0.36699        3.55281        1.96947
H          0.21989        4.17604        0.40370
H          1.29952        4.21412        1.83879
C          2.00007       -0.56937        3.61252
H          2.21287       -1.38512        4.30593
C          1.29675        1.69984        3.18454
H          0.96391        2.66526        3.56601
C          1.61309        0.68146        4.08109
H          1.53433        0.86998        5.15457
C          4.50049       -1.15551        0.19474
H          4.34740       -0.63310        1.15491
C          5.76822       -0.63095       -0.45323
H          5.75198        0.46263       -0.55195
H          5.89081       -1.07069       -1.45478
H          6.64489       -0.90285        0.15380
C          4.57486       -2.65363        0.43318
H          3.62473       -3.04789        0.82021
H          4.78110       -3.17329       -0.51484
H          5.37499       -2.89852        1.14787
C          3.39161        1.90749       -1.47791
H          4.12591        1.15895       -1.82084
C          3.91583        2.57033       -0.21687
H          4.03854        1.84585        0.60128
H          3.22609        3.35352        0.12654
H          4.89670        3.02953       -0.41414
C          3.14463        2.90067       -2.59501
H          2.76417        2.38341       -3.48713
H          2.39588        3.64542       -2.28303
H          4.07280        3.42803       -2.86121
