70
Cat727.ts34.5.log	Energy: -2049429.5614052
C          1.84720       -1.93663        2.04708
H          1.56181       -2.91782        2.43810
H          2.81408       -1.92968        1.53633
C          1.44362       -0.77932        2.76262
H          0.80545       -0.88838        3.64287
H          2.15015        0.05135        2.86243
H          0.92611        0.25971        1.48868
Co         0.34614       -1.02524        1.05860
C          2.22593        0.84725       -1.10512
C          2.80732       -1.96696       -1.18014
C          0.44931       -0.98028       -2.42018
C         -2.69166       -0.13343       -0.30824
C         -2.34691        0.64263        2.41075
C         -0.92108        2.02162        0.28351
P         -1.33977        0.31819        0.87664
P          1.41322       -0.78953       -0.84446
C         -0.54949       -2.50888        1.16946
O         -1.10273       -3.51713        1.29566
C          1.75725        1.79273       -2.02084
H          0.93660        1.53015       -2.69034
C          3.27600        1.23941       -0.24499
O          3.68742        0.31499        0.64962
C          4.67463        0.64359        1.58579
H          5.63810        0.87821        1.10044
H          4.79997       -0.23844        2.22648
H          4.37228        1.50004        2.21330
C          2.29594        3.07824       -2.10118
H          1.90042        3.79068       -2.82805
C          3.82992        2.51940       -0.32532
H          4.64406        2.81197        0.33792
C          3.33595        3.43673       -1.25315
H          3.77354        4.43648       -1.30444
H          3.54656       -1.80416       -0.38502
C          2.34279       -3.41387       -1.20045
H          1.65404       -3.61564       -2.03592
H          1.81402       -3.66876       -0.26963
H          3.29660       -1.68298       -2.12503
H          3.19695       -4.10027       -1.30767
H         -0.32624       -0.19718       -2.41597
C          1.20500       -1.02098       -3.74034
H          1.81645       -1.93131       -3.82495
H          1.87960       -0.16153       -3.86737
H         -0.11309       -1.91636       -2.28255
H          0.50237       -1.02282       -4.58870
C         -2.57600       -1.32972       -1.01633
H         -1.69201       -1.94006       -0.83379
C         -3.84894        0.64950       -0.53004
O         -3.97039        1.79467        0.17895
C         -5.11671        2.58395        0.03020
H         -5.22304        2.96549       -1.00027
H         -4.99989        3.43517        0.71306
H         -6.03228        2.03058        0.30196
C         -3.54317       -1.75786       -1.92504
H         -3.41632       -2.70411       -2.45461
C         -4.82068        0.23232       -1.44571
H         -5.70997        0.83754       -1.62123
C         -4.66396       -0.96698       -2.13985
H         -5.43546       -1.27853       -2.84837
H         -3.17614       -0.08226        2.37294
C         -1.59964        0.50037        3.72346
H         -0.72282        1.16273        3.77835
H         -1.24182       -0.52953        3.85627
H         -2.80248        1.63856        2.30701
H         -2.26037        0.74583        4.56998
H         -1.86424        2.57210        0.16429
C          0.05205        2.79039        1.15901
H          1.00350        2.24942        1.27147
H         -0.35728        2.97254        2.16511
H         -0.49176        1.88502       -0.72084
H          0.28245        3.76837        0.70925
