106
Cat757.ts34.5.log	Energy: -2345270.2929021
C          1.56173       -3.79689       -0.84626
H          1.56327       -4.20307       -1.86170
H          2.55092       -3.79967       -0.37518
C          0.42250       -4.02997       -0.01752
H         -0.46129       -4.51744       -0.44298
H          0.58932       -4.33023        1.02469
H          0.25373       -2.58659        0.68969
Co         0.49112       -2.11307       -0.69457
O          1.39196       -0.07732        1.54649
C          3.62514       -1.21105        0.50652
C          2.19558        0.76355       -1.00175
O         -1.08425        0.59547       -0.78302
C         -2.78019       -1.53411       -1.29480
C         -1.89213       -0.84862        1.37246
P         -1.28433       -1.03444       -0.34491
P          1.91197       -0.71659        0.05511
C          0.40383       -1.93158       -2.42198
O          0.38169       -1.75608       -3.56374
C          1.62169        1.17768        2.01512
C          0.85339        2.24377        1.53731
H          0.09657        2.03201        0.78109
C          2.59126        1.39560        2.99482
H          3.16529        0.54873        3.37519
C          1.07485        3.54644        1.98608
C          0.28520        4.69297        1.42267
H         -0.54977        4.33917        0.80117
H         -0.12225        5.33261        2.22083
H          0.92197        5.33312        0.78983
C          2.80714        2.69335        3.45671
H          3.56875        2.87367        4.21958
C          2.06800        3.76090        2.95253
H          2.25663        4.77390        3.31790
H          4.11171       -0.39134        1.06135
H          3.52201       -2.05766        1.20656
C          4.45249       -1.61891       -0.70721
H          3.85508       -2.28408       -1.35390
H          4.67321       -0.72856       -1.32008
C          5.75905       -2.30796       -0.33992
H          5.53729       -3.21002        0.25940
H          6.34977       -1.64779        0.32128
C          6.59823       -2.69888       -1.54817
H          5.99782       -3.35119       -2.20668
H          6.81620       -1.79491       -2.14426
C          7.89811       -3.39639       -1.18175
H          8.48166       -3.66565       -2.07518
H          7.70827       -4.32344       -0.61701
H          8.53302       -2.75305       -0.55125
H          2.36830        0.33305       -2.00342
H          1.20259        1.23463       -1.07644
C          3.27582        1.78341       -0.65078
H          3.33889        1.93054        0.43746
H          4.26595        1.40550       -0.95781
C          3.02243        3.13849       -1.29725
H          2.00076        3.46731       -1.03403
H          3.03029        3.03757       -2.39800
C          4.01375        4.20946       -0.86691
H          3.99105        4.28759        0.23478
H          5.03801        3.88557       -1.12410
C          3.73613        5.57112       -1.48285
H          4.46340        6.32692       -1.14905
H          2.73131        5.93329       -1.20980
H          3.77932        5.53047       -2.58324
C         -2.07158        1.49456       -1.04920
C         -2.62495        2.26259       -0.02354
H         -2.26582        2.11857        0.99799
C         -2.49034        1.67609       -2.37024
H         -2.02053        1.08677       -3.15995
C         -3.63029        3.19920       -0.29272
C         -4.20804        4.02137        0.82273
H         -4.59474        3.38224        1.63169
H         -3.44105        4.67546        1.26822
H         -5.03060        4.65877        0.47039
C         -3.49442        2.59919       -2.64138
H         -3.83480        2.74035       -3.67008
C         -4.06671        3.34947       -1.61308
H         -4.85476        4.07177       -1.84021
H         -2.54903       -1.27190       -2.34207
H         -2.75702       -2.63708       -1.27044
C         -4.15301       -1.01313       -0.88633
H         -4.43560       -1.43929        0.09157
H         -4.12642        0.07798       -0.74465
C         -5.23147       -1.34127       -1.90919
H         -5.28861       -2.43567       -2.05421
H         -4.93447       -0.92327       -2.88826
C         -6.60281       -0.80111       -1.52923
H         -6.89520       -1.21226       -0.54651
H         -6.52690        0.29144       -1.38572
C         -7.68072       -1.11053       -2.55521
H         -8.65843       -0.70479       -2.25391
H         -7.80038       -2.19705       -2.69490
H         -7.43060       -0.67983       -3.53820
H         -1.06392       -0.36062        1.91143
H         -2.75306       -0.16098        1.37277
C         -2.25714       -2.16494        2.04424
H         -3.04374       -2.68435        1.46817
H         -1.38247       -2.83608        2.02992
C         -2.72779       -1.98119        3.48028
H         -3.60844       -1.31316        3.49526
H         -1.94290       -1.45427        4.05226
C         -3.07308       -3.28952        4.17720
H         -3.85311       -3.81384        3.59682
H         -2.19025       -3.95276        4.15531
C         -3.53972       -3.10473        5.61197
H         -3.78070       -4.06683        6.08890
H         -4.44224       -2.47421        5.66052
H         -2.76488       -2.61499        6.22350
