98
Cat760.ts34.5.log	Energy: -2435427.4542771
C         -0.04389       -3.59705       -1.50051
H         -0.27504       -3.94933       -2.50944
H          0.96510       -3.84793       -1.15852
C         -1.09016       -3.53389       -0.53941
H         -2.12087       -3.73871       -0.84614
H         -0.88626       -3.87427        0.48191
H         -0.74644       -2.09343        0.19510
Co        -0.57094       -1.67799       -1.21111
O          1.31246       -0.15720        0.82246
O          2.57147       -1.89901       -0.37312
O          2.08703        0.17521       -1.61144
O         -1.18822        1.32976       -0.67737
O         -3.23694        0.15030       -1.45873
O         -2.54248       -0.16670        0.87284
P         -1.87673       -0.16905       -0.61619
P          1.30274       -0.90790       -0.66209
C         -0.82140       -1.51707       -2.92976
O         -0.94697       -1.43573       -4.07139
C          2.45240        0.24778        1.46843
C          2.98885       -0.56683        2.46234
H          2.50371       -1.52346        2.66672
C          3.04384        1.47100        1.15637
H          2.60878        2.09355        0.37617
C          4.13868       -0.18033        3.15768
C          4.74253       -1.08970        4.18802
H          3.96919       -1.57362        4.80277
H          5.32358       -1.89295        3.70481
H          5.42370       -0.54585        4.85753
C          4.18737        1.86263        1.84759
H          4.65891        2.81908        1.60862
C          4.73216        1.04658        2.83709
H          5.63195        1.36435        3.37004
C          3.43212       -2.34703       -1.41249
H          3.66618       -3.39938       -1.18071
H          2.90285       -2.33272       -2.38162
C          4.70064       -1.51994       -1.48565
H          5.32019       -1.92044       -2.30833
H          4.42402       -0.49160       -1.76688
C          5.49451       -1.49991       -0.18730
H          5.83141       -2.52455        0.05380
H          4.82116       -1.19819        0.62945
C          6.68533       -0.55757       -0.23314
H          7.39640       -0.83453       -1.02889
H          6.35685        0.47650       -0.42540
H          7.23418       -0.55470        0.72098
C          1.43551        0.98923       -2.57895
H          1.83939        0.70981       -3.56695
H          0.35627        0.78048       -2.57957
C          1.68264        2.45256       -2.28983
H          1.11815        3.04626       -3.02977
H          1.23177        2.69374       -1.31201
C          3.15288        2.84798       -2.31318
H          3.55179        2.69738       -3.33192
H          3.71836        2.15703       -1.66582
C          3.39133        4.28170       -1.86914
H          2.84887        4.99746       -2.50768
H          3.04163        4.44117       -0.83563
H          4.45899        4.54670       -1.90353
C         -1.61946        2.44020        0.00606
C         -2.88144        2.98422       -0.21127
H         -3.54885        2.49216       -0.92064
C         -0.72997        3.02389        0.90945
H          0.24271        2.55665        1.07232
C         -3.28021        4.13442        0.48039
C         -4.64456        4.71451        0.24272
H         -5.43033        3.96066        0.40713
H         -4.84369        5.56492        0.90953
H         -4.74958        5.06814       -0.79554
C         -1.12046        4.17297        1.58903
H         -0.43286        4.64034        2.29808
C         -2.38490        4.72353        1.37907
H         -2.68350        5.62317        1.92328
C         -4.06082       -0.89731       -1.95485
H         -4.74055       -0.41169       -2.67157
H         -3.44212       -1.62015       -2.51398
C         -4.83973       -1.60092       -0.86198
H         -5.46680       -2.37376       -1.34115
H         -4.13030       -2.14300       -0.21249
C         -5.69667       -0.67342       -0.01318
H         -6.43080       -0.16253       -0.66166
H         -5.04753        0.11242        0.40335
C         -6.41442       -1.39748        1.11347
H         -7.08068       -2.18773        0.73062
H         -5.69400       -1.87736        1.79537
H         -7.02750       -0.70744        1.71279
C         -1.76863       -0.24110        2.06713
H         -0.78471       -0.69286        1.85550
H         -1.58859        0.78711        2.42025
C         -2.52816       -1.04395        3.09789
H         -2.00245       -0.94335        4.06335
H         -3.52274       -0.58500        3.23636
C         -2.68088       -2.51465        2.73952
H         -1.67785       -2.96871        2.65325
H         -3.13127       -2.58849        1.73584
C         -3.51649       -3.29600        3.73909
H         -3.07663       -3.25663        4.74869
H         -4.53708       -2.88639        3.81120
H         -3.60381       -4.35566        3.45515
