82
Cat758.ts34.5.log	Energy: -2148065.3310205
C         -1.26834       -3.10217       -0.17033
H         -0.72475       -3.97843        0.19411
H         -2.29528       -3.02654        0.20224
C         -0.95976       -2.58925       -1.44837
H         -0.18087       -3.07503       -2.04376
H         -1.77011       -2.16746       -2.05432
H         -0.53877       -0.96013       -1.30424
Co        -0.14309       -1.42649        0.04197
O         -2.55906        0.41923       -0.73532
C         -2.98913       -0.62452        1.79407
C         -1.21428        1.65182        1.33435
O          2.27457        0.55961        0.31045
C          3.17168       -1.96979       -0.39128
C          2.00398       -0.09712       -2.33042
P          1.75018       -0.76715       -0.61517
P         -1.64452       -0.01194        0.63229
C          0.52951       -1.95429        1.54322
O          1.01562       -2.26733        2.54488
C         -3.80416        0.96541       -0.76390
C         -4.90479        0.12710       -0.95068
H         -4.72634       -0.94602       -1.05689
C         -3.99021        2.34793       -0.66219
H         -3.12554        3.00126       -0.54220
C         -6.20467        0.64059       -1.00073
C         -7.37406       -0.27588       -1.21707
H         -7.27942       -1.19679       -0.62243
H         -8.32212        0.21026       -0.94736
H         -7.44534       -0.57874       -2.27486
C         -5.28147        2.86487       -0.71128
H         -5.43264        3.94366       -0.62394
C         -6.38108        2.02246       -0.86874
H         -7.38965        2.44251       -0.89855
H         -3.62089       -1.21280        1.10388
C         -2.43641       -1.58945        2.84033
H         -3.26227       -1.97956        3.45663
H         -1.92013       -2.44113        2.38140
H         -1.72283       -1.09986        3.51971
C         -3.86947        0.43541        2.45073
H         -4.30832        1.13971        1.73202
H         -4.70219       -0.05611        2.97959
H         -3.30904        1.01420        3.20110
H         -2.16816        2.15270        1.56842
C         -0.40873        1.46673        2.61699
H         -0.12151        2.44869        3.02559
H         -0.96805        0.93396        3.39948
H          0.51621        0.90649        2.41038
C         -0.44109        2.49266        0.32860
H         -0.94972        2.54963       -0.64427
H         -0.31580        3.51787        0.71320
H          0.55750        2.06392        0.17009
C          3.54543        0.98885        0.53410
C          4.14860        1.90503       -0.32978
H          3.58890        2.25854       -1.19849
C          4.22331        0.54613        1.67301
H          3.72087       -0.14541        2.35252
C          5.44897        2.36400       -0.09373
C          6.07854        3.36741       -1.01639
H          5.79768        3.18491       -2.06415
H          5.75124        4.39011       -0.76521
H          7.17531        3.34663       -0.94625
C          5.51837        0.99596        1.90986
H          6.05832        0.64528        2.79283
C          6.13167        1.88884        1.03190
H          7.15151        2.23022        1.22690
H          3.34323       -1.89469        0.69786
C          2.71773       -3.40006       -0.67671
H          3.48494       -4.11304       -0.33558
H          1.77325       -3.63299       -0.16681
H          2.56711       -3.57354       -1.75359
C          4.47976       -1.65564       -1.11015
H          4.85748       -0.64728       -0.89639
H          5.25536       -2.37090       -0.79182
H          4.37603       -1.75960       -2.20135
H          3.06619        0.19873       -2.36885
C          1.75261       -1.15955       -3.39509
H          1.99005       -0.75320       -4.39121
H          2.36248       -2.06262       -3.25297
H          0.69535       -1.46202       -3.40721
C          1.14239        1.13258       -2.58125
H          1.36635        1.94361       -1.87584
H          1.31301        1.50994       -3.60240
H          0.07149        0.89431       -2.48118
