110
Cat808.ts34.5.log	Energy: -2300207.4444668
C         -1.33857        3.31109       -1.61619
H         -1.34253        3.55008       -2.68328
H         -2.34195        3.33433       -1.17138
C         -0.23858        3.75652       -0.82088
H          0.60889        4.24598       -1.31272
H         -0.45362        4.20417        0.15823
H          0.11987        2.47264        0.08557
Co        -0.15558        1.75581       -1.19726
C         -2.42295        1.36782        1.25865
C         -3.22825        0.45428       -1.41837
C         -1.51986       -1.16554        0.24149
C          2.51337       -0.15807       -2.02501
C          3.13288        2.11696       -0.39415
C          1.80907       -0.13056        0.82638
P          1.75804        0.92408       -0.69750
P         -1.74904        0.58624       -0.30218
C         -0.10002        1.28717       -2.86346
O         -0.11654        0.92579       -3.96282
H         -1.63018        1.20788        2.00763
H         -2.43862        2.44809        1.04675
C         -3.75476        0.91061        1.75792
C         -4.92014        1.60257        1.40876
H         -4.84629        2.51742        0.81469
C         -3.87811       -0.24928        2.53426
H         -2.97276       -0.78415        2.83599
C         -6.16859        1.12142        1.79473
H         -7.07229        1.66570        1.50916
C         -5.12221       -0.74982        2.92692
C         -5.22274       -1.98816        3.77003
H         -4.31996       -2.60972        3.68418
H         -5.34619       -1.73097        4.83531
H         -6.08954       -2.60121        3.48197
C         -6.27264       -0.05272        2.53622
H         -7.25722       -0.42950        2.82646
H         -2.81072        0.37416       -2.43609
H         -3.69865        1.44975       -1.38044
C         -4.25439       -0.64615       -1.18596
H         -3.75691       -1.62785       -1.25460
H         -4.66693       -0.58547       -0.16594
C         -5.41585       -0.64389       -2.18559
H         -4.98168       -0.70503       -3.20178
C         -6.28825       -1.87566       -1.97007
H         -5.70462       -2.80506       -2.06428
H         -7.11305       -1.92023       -2.69833
H         -6.73283       -1.86254       -0.96071
C         -6.25477        0.62712       -2.10898
H         -7.08573        0.59563       -2.83077
H         -5.66442        1.52937       -2.32824
H         -6.68648        0.74496       -1.10167
H         -2.48038       -1.57165        0.59796
H         -0.84307       -1.14044        1.10990
C         -0.94960       -2.04085       -0.86502
H         -1.55471       -1.91932       -1.78003
H          0.05322       -1.67052       -1.13876
C         -0.87640       -3.53350       -0.53226
H         -1.90854       -3.86971       -0.31754
C         -0.37063       -4.32114       -1.73548
H         -0.99701       -4.14611       -2.62382
H         -0.36322       -5.40383       -1.53532
H          0.65943       -4.02534       -1.99701
C         -0.03052       -3.82261        0.70320
H         -0.00213       -4.90186        0.91922
H         -0.41698       -3.31738        1.60087
H          1.01066       -3.48932        0.55908
H          1.68679       -0.78043       -2.39823
H          2.76590        0.53670       -2.84141
C          3.67925       -1.00698       -1.63590
C          4.99147       -0.52245       -1.68283
H          5.18674        0.47385       -2.08728
C          3.46705       -2.30520       -1.15370
H          2.44818       -2.70182       -1.14126
C          6.04607       -1.30367       -1.21377
H          7.06692       -0.91535       -1.25111
C          4.50895       -3.09980       -0.67205
C          4.24290       -4.46689       -0.11210
H          3.22019       -4.80222       -0.33513
H          4.94372       -5.21233       -0.51760
H          4.36344       -4.47123        0.98402
C          5.80825       -2.57579       -0.70007
H          6.64197       -3.17842       -0.32917
H          3.26903        2.67900       -1.33370
H          4.05184        1.53310       -0.23073
C          2.89065        3.07928        0.75982
H          2.02434        3.71325        0.52067
H          2.60777        2.52073        1.67040
C          4.08695        3.97571        1.09294
H          4.40206        4.46808        0.15333
C          3.67348        5.06441        2.07651
H          2.84785        5.67446        1.67821
H          4.51187        5.73965        2.30787
H          3.33149        4.62189        3.02727
C          5.27453        3.18410        1.63088
H          6.12990        3.84466        1.84100
H          5.61890        2.41350        0.92486
H          5.00846        2.67583        2.57320
H          1.36657       -1.09212        0.52028
H          1.07116        0.32936        1.50196
C          3.13083       -0.37517        1.54706
H          3.94310       -0.53019        0.82330
H          3.41161        0.51925        2.12981
C          3.09797       -1.58631        2.48243
H          2.82957       -2.46227        1.86218
C          4.48128       -1.84174        3.06705
H          5.22742       -1.97953        2.26878
H          4.49097       -2.74035        3.70389
H          4.80961       -0.99131        3.68802
C          2.04713       -1.45190        3.57829
H          2.04689       -2.33219        4.23979
H          1.03153       -1.35078        3.16582
H          2.24382       -0.56493        4.20429
