96
Cat834.ts34.5.log	Energy: -2560500.6999732
C          0.96297        3.46494        0.02097
H          0.48215        4.09267        0.77683
H          2.05792        3.52091        0.04248
C          0.29658        3.27311       -1.21354
H         -0.70103        3.69634       -1.36316
H          0.89424        3.24933       -2.13185
H          0.36440        1.56351       -1.48517
Co         0.16130        1.61133       -0.01519
C          3.36381        1.12417       -0.96199
C          2.64868       -0.43883        1.39587
C          1.64211       -1.22868       -1.18885
C         -1.77198       -1.12472        0.50168
C         -3.23675        1.33461       -0.03133
C         -1.86524        0.03732       -2.22723
P         -1.62139        0.49546       -0.43292
P          1.88098        0.30962       -0.13330
C         -0.35558        1.88741        1.60478
O         -0.75331        2.11929        2.66904
H          3.43627        0.70162       -1.97373
H          3.07975        2.17947       -1.07621
C          4.68192        1.02356       -0.26000
C          5.00857        1.92235        0.76485
H          4.30464        2.71795        1.02588
C          5.60700        0.02160       -0.57910
H          5.38301       -0.68511       -1.38026
C          6.21024        1.82399        1.46086
H          6.46959        2.52195        2.25895
C          6.81350       -0.09093        0.10684
H          7.53775       -0.86942       -0.13988
C          7.09933        0.81097        1.12369
F          8.25222        0.70687        1.78566
H          3.09873        0.40576        1.93724
H          3.47605       -1.10175        1.10042
C          1.64887       -1.13416        2.26929
C          1.30345       -2.48014        2.08278
H          1.80375       -3.06881        1.31194
C          0.99987       -0.43036        3.29194
H          1.26058        0.61414        3.47021
C          0.32887       -3.09254        2.86900
H          0.07594       -4.14145        2.69754
C          0.02450       -1.03687        4.07917
H         -0.46920       -0.45710        4.86272
C         -0.32256       -2.37035        3.86646
H         -1.09596       -2.84426        4.47475
H          1.00185       -0.89227       -2.01620
H          1.03045       -1.90288       -0.56906
C          2.85106       -1.91782       -1.73876
C          3.58487       -2.85851       -1.00260
H          3.25817       -3.13929       -0.00059
C          3.30018       -1.60931       -3.03229
H          2.73030       -0.89976       -3.63932
C          4.73268       -3.44904       -1.52687
H          5.28528       -4.17715       -0.92842
C          4.44888       -2.19452       -3.56018
H          4.77541       -1.93273       -4.56944
C          5.17564       -3.11473       -2.80564
H          6.07678       -3.57581       -3.21603
H         -1.50862       -1.92591       -0.20442
H         -0.96675       -1.07658        1.24706
C         -3.07642       -1.41960        1.17667
C         -3.33046       -0.90815        2.45725
H         -2.55849       -0.31874        2.95911
C         -4.07517       -2.17982        0.55764
H         -3.90055       -2.59682       -0.43549
C         -4.54376       -1.13562        3.09999
H         -4.74752       -0.73888        4.09626
C         -5.29415       -2.41862        1.18783
H         -6.07522       -3.01210        0.70916
C         -5.51516       -1.88952        2.45252
F         -6.68109       -2.11308        3.06063
H         -3.31399        1.30570        1.06485
H         -4.07101        0.73265       -0.42214
C         -3.27028        2.75215       -0.51178
C         -3.68899        3.08336       -1.80622
H         -4.06371        2.30219       -2.47205
C         -2.82500        3.78638        0.32370
H         -2.50688        3.55154        1.34151
C         -3.64430        4.40036       -2.26256
H         -3.97619        4.63344       -3.27720
C         -2.78021        5.10233       -0.12819
H         -2.42610        5.89092        0.54010
C         -3.18239        5.41479       -1.42696
H         -3.14332        6.44683       -1.78298
H         -0.86466       -0.23581       -2.58926
H         -2.11857        0.99006       -2.71815
C         -2.84404       -1.04611       -2.54844
C         -4.21436       -0.79406       -2.69876
H         -4.58909        0.22815       -2.61685
C         -2.39926       -2.36906       -2.68994
H         -1.33068       -2.58597       -2.60173
C         -5.11099       -1.82839       -2.95728
H         -6.17494       -1.60578       -3.06680
C         -3.29216       -3.40621       -2.95073
H         -2.92013       -4.42798       -3.05708
C         -4.65516       -3.14037       -3.07898
H         -5.35803       -3.95142       -3.28229
