88
Cat831.ts34.5.log	Energy: -2899625.5575849
C         -1.26347        0.95626       -3.10533
H         -1.00009        1.94026       -3.50346
H         -1.00768        0.12737       -3.77417
C         -2.39954        0.82975       -2.26761
H         -2.95084        1.72145       -1.95606
H         -3.03041       -0.06020       -2.36305
H         -1.76862       -0.22221       -1.02096
Co        -0.67161        0.74397       -1.17973
C          2.17481       -0.58899       -2.71495
O          1.36768       -1.48515       -0.26573
O          0.12226       -2.10151       -2.48735
C          0.51582        0.93365        2.03249
O         -2.03586        1.42609        1.65362
O         -1.23357       -1.00158        1.34399
P         -0.84526        0.54719        0.87519
P          0.69793       -0.76822       -1.62830
C         -0.05406        2.39026       -1.18185
O          0.25893        3.49368       -1.26092
H          2.67978       -1.56419       -2.78109
H          1.75592       -0.36781       -3.70833
C          3.09893        0.49499       -2.25642
C          2.84448        1.83005       -2.59228
H          1.98341        2.07222       -3.21861
C          4.20794        0.20866       -1.45165
H          4.42744       -0.82700       -1.18191
C          3.66588        2.85710       -2.14112
H          3.46333        3.90010       -2.38864
C          5.04162        1.22480       -0.98954
H          5.91005        1.01369       -0.36307
C          4.75503        2.53700       -1.34226
F          5.53371        3.52022       -0.88149
C          2.30439       -2.47101       -0.15594
C          3.24778       -2.33450        0.86752
H          3.22254       -1.44023        1.49294
C          2.31729       -3.60859       -0.96851
H          1.57092       -3.71754       -1.75521
C          4.20542       -3.32121        1.07741
H          4.94897       -3.23234        1.87148
C          3.28255       -4.59316       -0.76476
H          3.31294       -5.48857       -1.38819
C          4.21446       -4.44142        0.25344
F          5.13225       -5.38671        0.44798
C         -1.17188       -2.53179       -2.38796
C         -1.91569       -2.66604       -3.56083
H         -1.44688       -2.42233       -4.51591
C         -1.74430       -2.84286       -1.15381
H         -1.16398       -2.72262       -0.23959
C         -3.23641       -3.10253       -3.50360
H         -3.83898       -3.21482       -4.40655
C         -3.06871       -3.26802       -1.09076
H         -3.53923       -3.50643       -0.13518
C         -3.80016       -3.39085       -2.26565
F         -5.06847       -3.79698       -2.20626
H          0.15323        0.74083        3.05388
H          1.29422        0.19204        1.80083
C          1.03032        2.33251        1.87993
C          2.24603        2.58259        1.23486
H          2.83111        1.74931        0.83670
C          0.28811        3.42035        2.35959
H         -0.66495        3.23799        2.86029
C          2.72174        3.88175        1.07850
H          3.67411        4.08839        0.58961
C          0.74288        4.72429        2.19693
H          0.17394        5.58023        2.56437
C          1.95770        4.93722        1.55580
F          2.40072        6.18398        1.40222
C         -3.18706        1.75022        0.98208
C         -4.14317        0.77189        0.70812
H         -3.95984       -0.25968        1.01444
C         -3.38377        3.06775        0.57320
H         -2.60873        3.80872        0.77743
C         -5.30701        1.11322        0.02479
H         -6.06897        0.36784       -0.20953
C         -4.54863        3.41467       -0.10622
H         -4.72989        4.43756       -0.44083
C         -5.49584        2.43185       -0.37250
F         -6.60863        2.76168       -1.02599
C         -1.09606       -1.51194        2.60703
C         -1.93307       -1.10465        3.64806
H         -2.68261       -0.33373        3.46468
C         -0.12203       -2.48829        2.82259
H          0.52534       -2.78285        1.99504
C         -1.79138       -1.67628        4.91028
H         -2.43001       -1.37753        5.74345
C          0.01671       -3.06453        4.08171
H          0.76915       -3.83090        4.27586
C         -0.81996       -2.64989        5.11173
F         -0.68768       -3.19738        6.31852
