108
Cat840.ts34.5.log	Energy: -2659106.3661646
C         -0.28523        1.57830       -3.27691
H         -0.10017        1.19943       -4.28575
H         -1.30862        1.95177       -3.14046
C          0.77577        2.22729       -2.58172
H          1.77149        2.27033       -3.03852
H          0.55690        3.13334       -2.00288
H          0.66022        1.56792       -1.05455
Co         0.44758        0.35273       -1.87453
C         -2.29086        1.61039       -0.36228
C         -2.62433       -0.93336       -1.88252
C         -1.30934       -0.94044        0.79755
C          2.22630       -2.11746       -0.44128
C          3.75086        0.02686       -1.74545
C          2.49544        0.36836        0.93974
P          2.16805       -0.27427       -0.77777
P         -1.40766        0.01724       -0.81664
C          0.55363       -0.96664       -2.98726
O          0.56292       -1.88536       -3.69295
H         -1.94352        1.85669        0.65088
H         -1.83933        2.35337       -1.03625
C         -3.78254        1.70873       -0.43257
C         -4.41890        2.00218       -1.64666
H         -3.81609        2.18161       -2.54156
C         -4.58218        1.53192        0.70399
H         -4.11353        1.33602        1.66858
C         -5.80758        2.07267       -1.74261
H         -6.30755        2.29020       -2.68798
C         -5.96946        1.59988        0.62777
H         -6.59438        1.45444        1.51087
C         -6.56636        1.85542       -0.60000
F         -7.89906        1.88363       -0.68340
H         -3.12562       -0.16921       -2.49479
H         -1.97373       -1.49560       -2.56702
C         -3.62066       -1.86960       -1.27167
C         -3.24248       -3.18319       -0.96440
H         -2.22528       -3.51870       -1.18636
C         -4.94385       -1.48452       -1.02491
H         -5.25703       -0.47144       -1.27916
C         -4.15681       -4.06780       -0.39508
H         -3.84799       -5.08792       -0.15389
C         -5.87930       -2.36228       -0.47129
C         -7.30366       -1.93678       -0.25973
H         -7.42620       -0.85240       -0.38218
H         -7.97141       -2.43087       -0.98440
H         -7.66030       -2.21247        0.74445
C         -5.46433       -3.66019       -0.14378
H         -6.17880       -4.36158        0.29652
H         -1.37815       -2.00025        0.50860
H         -0.27476       -0.77042        1.12746
C         -2.24283       -0.62928        1.92764
C         -1.90661        0.36351        2.85895
H         -0.94896        0.88519        2.77753
C         -3.45325       -1.31122        2.09104
H         -3.71933       -2.10084        1.38749
C         -2.77469        0.67910        3.90198
H         -2.49822        1.45241        4.62293
C         -4.33861       -1.00349        3.12848
C         -5.65571       -1.71366        3.23812
H         -5.60754       -2.71709        2.79244
H         -5.98231       -1.80675        4.28413
H         -6.43847       -1.15757        2.69538
C         -3.98723        0.00573        4.03327
H         -4.66516        0.25797        4.85334
H          1.37095       -2.30673        0.22642
H          1.97907       -2.58795       -1.40455
C          3.49433       -2.67850        0.11684
C          4.46798       -3.22435       -0.73168
H          4.26149       -3.30865       -1.80190
C          3.77370       -2.63248        1.49043
H          3.02031       -2.24836        2.18162
C          5.69865       -3.65786       -0.24426
H          6.46417       -4.06881       -0.90452
C          4.99827       -3.05805        1.99623
H          5.22498       -3.01112        3.06279
C          5.95441       -3.54990        1.11600
F          7.14394       -3.92191        1.58995
H          4.05885       -0.96462       -2.11291
H          3.41278        0.59410       -2.62178
C          4.90787        0.72811       -1.10188
C          5.20876        2.04785       -1.45368
H          4.59077        2.56231       -2.19395
C          5.71493        0.09180       -0.14986
H          5.50630       -0.94436        0.12002
C          6.28315        2.70817       -0.86196
H          6.50919        3.73865       -1.14679
C          6.79095        0.74073        0.46165
C          7.61970        0.03698        1.49790
H          7.49041       -1.05320        1.44782
H          8.68994        0.26220        1.37826
H          7.33357        0.35623        2.51397
C          7.06592        2.06452        0.09287
H          7.90703        2.59014        0.55347
H          1.76361       -0.16536        1.56867
H          3.49572        0.03218        1.24706
C          2.35626        1.84672        1.14402
C          3.48106        2.66804        1.27455
H          4.48016        2.23079        1.23535
C          1.08915        2.43304        1.22877
H          0.21006        1.79222        1.14836
C          3.32723        4.03915        1.45793
H          4.21312        4.67129        1.55650
C          0.91423        3.80819        1.41399
C         -0.46554        4.39764        1.48256
H         -1.12271        3.81241        2.14438
H         -0.44436        5.43169        1.85396
H         -0.94292        4.41125        0.48901
C          2.05650        4.60798        1.52096
H          1.94738        5.68598        1.66837
