56
Cat813.ts34.5.log	Energy: -1980995.7935607
C          1.20124        3.48379       -0.47136
H          0.97434        4.31644        0.20052
H          2.27866        3.29601       -0.56857
C          0.37633        3.28955       -1.62264
H         -0.51649        3.91110       -1.75168
H          0.86350        3.07319       -2.58159
H          0.18592        1.67435       -1.62880
Co         0.00781        1.91353       -0.16888
C          2.77973        0.14075       -1.00098
C          2.68523        1.14535        1.70925
C          1.19413       -1.13461        1.03100
C         -2.54784       -0.03862        0.88999
C         -3.11232        1.68412       -1.36048
C         -1.56256       -0.64468       -1.75843
P         -1.73375        0.75594       -0.58557
P          1.57857        0.54259        0.37404
C         -0.62461        2.58199        1.30195
O         -1.02654        2.98961        2.30743
H          2.16527       -0.34164       -1.77762
H          3.08140        1.11917       -1.40791
C          3.97131       -0.69184       -0.65304
C          5.15702       -0.10147       -0.19394
H          5.22337        0.98772       -0.12965
C          3.92724       -2.09023       -0.73848
H          3.02082       -2.57656       -1.10870
C          6.25680       -0.87068        0.17575
H          7.18268       -0.41352        0.52953
C          5.01684       -2.87666       -0.37332
H          4.98732       -3.96551       -0.44377
C          6.17115       -2.25433        0.08451
F          7.21948       -2.99866        0.43563
H          3.11313        2.11480        1.41676
H          2.06774        1.31291        2.60425
H          3.49611        0.44109        1.94927
H          2.09983       -1.70802        1.28164
H          0.58795       -1.01291        1.94125
H          0.60169       -1.70487        0.30038
H         -1.76145       -0.65201        1.35566
H         -2.74775        0.78953        1.58780
C         -3.78029       -0.84445        0.62902
C         -5.04827       -0.24736        0.63269
H         -5.13970        0.81575        0.86955
C         -3.70091       -2.21423        0.34329
H         -2.72562       -2.70818        0.35040
C         -6.19738       -0.98142        0.35171
H         -7.18705       -0.52114        0.35865
C         -4.83872       -2.96495        0.06003
H         -4.78156       -4.03294       -0.15782
C         -6.07700       -2.33517        0.06386
F         -7.17136       -3.04551       -0.20563
H         -3.41919        2.49646       -0.68585
H         -2.73476        2.14200       -2.28646
H         -3.97863        1.04649       -1.59353
H         -1.20606       -0.24203       -2.71770
H         -0.80605       -1.35168       -1.38883
H         -2.51186       -1.17775       -1.91613
