106
Cat801.ts34.5.log	Energy: -2674067.6726209
C          1.99629       -1.75007       -3.30964
H          2.03837       -1.25186       -4.28123
H          2.95826       -2.16570       -2.99183
C          0.79045       -2.39057       -2.91849
H         -0.10050       -2.29807       -3.54810
H          0.85285       -3.36224       -2.41258
H          0.56958       -1.88707       -1.36735
Co         1.03988       -0.61033       -1.95219
C          3.04051       -1.96642        0.52407
O          4.06445       -0.20037       -1.26204
O          2.62395        0.56726        0.73953
C         -1.13217        1.72690       -0.75592
O         -2.08652       -0.38262       -2.17715
O         -1.24309       -0.89736        0.18760
P         -0.80298       -0.04491       -1.16010
P          2.59129       -0.52847       -0.53704
C          1.19544        0.77860       -2.98941
O          1.31991        1.70959       -3.65665
H          3.20162       -2.80614       -0.17088
H          3.99934       -1.74344        1.01573
C          1.97004       -2.27877        1.52550
C          2.01800       -1.72456        2.81198
H          2.86267       -1.09038        3.09076
C          0.87839       -3.07824        1.18231
H          0.83429       -3.51799        0.18171
C          0.99678       -1.97996        3.72032
H          1.04249       -1.55144        4.72471
C         -0.17077       -3.32437        2.07502
C         -1.36289       -4.12194        1.63712
H         -1.98879       -3.52575        0.95300
H         -1.06353       -5.03375        1.09758
H         -1.98952       -4.41677        2.49037
C         -0.09417       -2.76763        3.35354
H         -0.90511       -2.94144        4.06565
C          5.27398       -0.18822       -0.62106
C          6.15868       -1.24699       -0.82605
H          5.85435       -2.07121       -1.47462
C          5.64683        0.87785        0.19881
H          4.95733        1.70909        0.35056
C          7.40620       -1.23929       -0.20892
H          8.08992       -2.07629       -0.37623
C          6.89726        0.86893        0.81071
H          7.17820        1.70790        1.45360
C          7.80037       -0.18384        0.62176
C          9.15876       -0.16415        1.26103
H          9.54188       -1.18165        1.42607
H          9.14081        0.35497        2.23049
H          9.88972        0.36112        0.62340
C          2.15470        1.83984        0.64491
C          1.52692        2.38582        1.76682
H          1.47369        1.78888        2.67920
C          2.29401        2.61135       -0.51055
H          2.83357        2.21370       -1.37089
C          0.98087        3.66348        1.70443
H          0.47660        4.07096        2.58513
C          1.73532        3.88712       -0.55772
H          1.83197        4.46870       -1.47858
C          1.04985        4.43050        0.53345
C          0.38349        5.77234        0.44607
H          0.40622        6.30001        1.41093
H         -0.67563        5.66397        0.15706
H          0.86426        6.41385       -0.30632
H         -0.68786        1.90390        0.23548
H         -0.49264        2.26844       -1.46807
C         -2.54233        2.22393       -0.84071
C         -3.06213        2.63089       -2.07712
H         -2.43058        2.58600       -2.96770
C         -3.36321        2.29194        0.28726
H         -2.96205        1.99647        1.25917
C         -4.37582        3.07749       -2.17263
H         -4.77286        3.39538       -3.13980
C         -4.69228        2.72331        0.20568
C         -5.55160        2.73818        1.43626
H         -5.04981        3.25769        2.26735
H         -6.51566        3.23343        1.25387
H         -5.75420        1.71043        1.77925
C         -5.19065        3.11488       -1.04032
H         -6.22492        3.45989       -1.12410
C         -3.15100       -1.18760       -1.88691
C         -4.42738       -0.63461       -1.79667
H         -4.55243        0.43974       -1.93484
C         -2.97276       -2.55867       -1.69217
H         -1.96932       -2.98214       -1.75861
C         -5.51352       -1.45490       -1.50178
H         -6.50832       -1.00716       -1.42426
C         -4.06722       -3.36279       -1.38796
H         -3.91196       -4.43257       -1.22180
C         -5.35838       -2.82925       -1.28462
C         -6.53730       -3.70850       -0.98274
H         -7.35205       -3.14163       -0.50941
H         -6.26258       -4.53600       -0.31211
H         -6.94406       -4.15763       -1.90443
C         -1.92753       -0.50103        1.30233
C         -3.25667       -0.88033        1.48852
H         -3.76716       -1.46304        0.72206
C         -1.26141        0.21558        2.29147
H         -0.20535        0.44348        2.15217
C         -3.91853       -0.49393        2.64930
H         -4.96189       -0.79256        2.78585
C         -1.94235        0.60795        3.44078
H         -1.41076        1.17942        4.20681
C         -3.28592        0.27187        3.63835
C         -4.03602        0.72341        4.85762
H         -4.73727        1.53827        4.61116
H         -3.35519        1.09729        5.63532
H         -4.63172       -0.09434        5.29103
