60
Cat817.ts34.5.log	Energy: -2169719.0745266
C         -0.78995       -3.99127       -0.36399
H         -0.39751       -4.74187        0.32726
H         -1.87812       -3.88742       -0.35088
C         -0.06684       -3.71324       -1.54740
H          0.89378       -4.20568       -1.72795
H         -0.62332       -3.52429       -2.47145
H         -0.00663       -1.99590       -1.60524
Co         0.16351       -2.21897       -0.14955
C         -1.90864        0.35841       -0.94059
O         -2.94190       -1.83215        0.40218
O         -1.53423       -0.05355        1.61032
C          2.00182        0.33964        1.00368
O          3.15737       -1.18704       -0.85961
O          1.33349        0.45451       -1.50176
P          1.63109       -0.75383       -0.41812
P         -1.52939       -1.00363        0.24397
C          0.84595       -2.80781        1.33501
O          1.27629       -3.19667        2.33358
H         -0.96069        0.91744       -1.00662
H         -2.02231       -0.15846       -1.90677
C         -3.07295        1.26163       -0.67720
C         -4.23731        1.16955       -1.44895
H         -4.28612        0.43848       -2.26073
C         -3.03357        2.21707        0.34795
H         -2.13673        2.29978        0.96367
C         -5.33971        1.98448       -1.20301
H         -6.24929        1.91619       -1.80250
C         -4.12581        3.03900        0.60819
H         -4.10388        3.78344        1.40630
C         -5.27020        2.90986       -0.16999
F         -6.31930        3.69448        0.07631
C         -4.15308       -1.30740        0.90887
H         -3.99040       -0.38471        1.48605
H         -4.85292       -1.08727        0.08914
H         -4.60177       -2.06798        1.56590
C         -1.24502       -0.65213        2.85418
H         -1.79480       -1.59834        2.98991
H         -0.16883       -0.85976        2.96427
H         -1.55473        0.05251        3.63873
H          1.03343        0.78629        1.27985
H          2.28719       -0.34154        1.82095
C          3.04948        1.37849        0.75556
C          4.40517        1.08802        0.94465
H          4.69696        0.09668        1.29857
C          2.69989        2.64843        0.28298
H          1.64703        2.88675        0.11568
C          5.38868        2.03713        0.68202
H          6.44824        1.82126        0.83038
C          3.66997        3.60978        0.01520
H          3.40673        4.60435       -0.34927
C          5.00634        3.28965        0.21888
F          5.94231        4.20573       -0.03342
C          3.48476       -2.50055       -1.24761
H          2.74815       -3.22058       -0.85581
H          3.51616       -2.58528       -2.34681
H          4.47999       -2.74085       -0.84658
C          1.30783        0.16947       -2.87683
H          2.30805       -0.12234       -3.23729
H          0.59316       -0.64106       -3.11119
H          0.99287        1.08224       -3.40056
