84
Cat819.ts34.5.log	Energy: -2366942.9246314
C         -1.00561       -3.77628       -0.67162
H         -0.87756       -4.62457        0.00659
H         -2.05483       -3.55391       -0.89601
C         -0.01658       -3.55511       -1.66910
H          0.87869       -4.18469       -1.68355
H         -0.33965       -3.26819       -2.67654
H          0.20481       -1.88766       -1.58081
Co         0.13200       -2.20740       -0.13922
C         -2.21173       -0.18333       -1.38105
O         -2.88712       -1.30462        0.88432
O         -1.00692        0.43907        1.09009
C          2.22871       -0.10841        1.42299
O          3.16397       -1.19078       -0.78851
O          1.27731        0.53871       -1.05964
P          1.67744       -0.79917       -0.18611
P         -1.46425       -0.84956        0.17127
C          0.60285       -2.95682        1.36518
O          0.86316       -3.42889        2.38572
H         -1.34775        0.26147       -1.89908
H         -2.45343       -1.10921       -1.93234
C         -3.38614        0.75011       -1.37748
C         -4.62367        0.37760       -0.83095
H         -4.72608       -0.60899       -0.37898
C         -3.28073        2.01948       -1.95918
H         -2.33660        2.32150       -2.42001
C         -5.70404        1.25433       -0.83202
H         -6.66747        0.97281       -0.40268
C         -4.35238        2.90948       -1.96963
H         -4.27063        3.90014       -2.42040
C         -5.55367        2.51549       -1.39670
F         -6.58610        3.35930       -1.39640
C         -2.90780       -1.80478        2.22390
H         -1.97970       -1.48494        2.73329
C         -2.97608       -3.31827        2.22172
H         -2.08873       -3.74758        1.74223
H         -3.86952       -3.65643        1.67433
H         -3.03229       -3.70107        3.25173
C         -4.10120       -1.17386        2.91427
H         -4.05316       -0.07718        2.86319
H         -5.03470       -1.49516        2.42664
H         -4.14420       -1.47476        3.97168
C         -1.76772        1.61775        1.37177
H         -2.80999        1.46033        1.04669
C         -1.16251        2.77691        0.60718
H         -1.12817        2.55616       -0.46595
H         -0.13103        2.96051        0.94114
H         -1.75466        3.69245        0.75386
C         -1.73909        1.83982        2.87114
H         -2.16451        0.98123        3.40838
H         -0.70318        1.97791        3.21796
H         -2.31494        2.73765        3.14110
H          1.28691        0.07951        1.95787
H          2.73341       -0.94942        1.92706
C          3.07766        1.12539        1.39793
C          4.35896        1.13190        0.82861
H          4.75036        0.21044        0.39451
C          2.59480        2.31947        1.94615
H          1.60405        2.33122        2.40591
C          5.12288        2.29458        0.78853
H          6.11944        2.30857        0.34312
C          3.34798        3.49140        1.92070
H          2.97370        4.42334        2.34806
C          4.60559        3.46424        1.33342
F          5.33483        4.57951        1.29670
C          3.35920       -2.24594       -1.73442
H          2.42846       -2.37512       -2.31469
C          3.65834       -3.53220       -0.99231
H          2.81624       -3.78502       -0.33217
H          4.56377       -3.41548       -0.37708
H          3.81825       -4.36343       -1.69557
C          4.47686       -1.81945       -2.66296
H          4.22411       -0.88476       -3.18356
H          5.40567       -1.65741       -2.09459
H          4.66685       -2.59605       -3.41866
C          2.13107        1.25398       -1.95490
H          3.17561        0.96628       -1.75612
C          1.96806        2.73608       -1.69504
H          2.24373        2.97931       -0.66044
H          0.92449        3.04528       -1.85980
H          2.61233        3.31591       -2.37273
C          1.76648        0.86152       -3.37514
H          1.86832       -0.22403       -3.52067
H          0.72190        1.13542       -3.59178
H          2.41527        1.37068       -4.10391
