88
Cat833.ts34.5.log	Energy: -3803929.8630554
C          0.04593       -3.97462       -1.14505
H         -0.35796       -4.33662       -2.09423
H          1.08184       -4.27728       -0.95697
C         -0.82419       -3.81125       -0.03758
H         -1.89982       -3.97583       -0.15732
H         -0.45922       -4.07640        0.96087
H         -0.29884       -2.29084        0.56691
Co        -0.35383       -2.01114       -0.87703
C          2.54594       -1.53448       -2.55485
O          1.78622        0.27648       -0.60672
O          2.80009       -2.05287       -0.00852
C         -1.49339        1.16000       -1.07038
O         -2.79725       -0.50943        0.72125
O         -0.52637        0.16728        1.31700
P         -1.31518       -0.37669       -0.03566
P          1.62349       -1.34330       -0.97340
C         -0.95486       -1.80693       -2.50386
O         -1.28863       -1.61615       -3.59081
H          2.76500       -2.61509       -2.59557
H          1.79539       -1.34192       -3.33626
C          3.76743       -0.69676       -2.79058
C          3.77843        0.23634       -3.83265
H          2.90746        0.32045       -4.48830
C          4.90061       -0.79301       -1.97101
H          4.90689       -1.50953       -1.14790
C          4.87288        1.07031       -4.04721
H          4.88691        1.80272       -4.85626
C          5.99642        0.04026       -2.16386
H          6.87266       -0.00795       -1.51525
C          5.96596        0.96890       -3.19797
F          7.00739        1.77849       -3.37677
C          2.89423        1.02773       -0.32129
C          3.17946        2.11892       -1.14224
H          2.54939        2.30400       -2.01300
C          3.67514        0.77998        0.80888
H          3.43548       -0.05217        1.46962
C          4.27030        2.93474       -0.86687
H          4.51439        3.77579       -1.51747
C          4.76871        1.59489        1.08630
H          5.39168        1.40317        1.96125
C          5.07002        2.66183        0.24254
Cl         6.44836        3.65713        0.57205
C          2.53124       -2.61236        1.20760
C          1.72957       -1.97748        2.15909
H          1.26353       -1.01548        1.93969
C          3.10534       -3.85299        1.48872
H          3.72850       -4.33099        0.73061
C          1.49534       -2.59374        3.38641
H          0.86324       -2.10890        4.13196
C          2.88035       -4.46404        2.71735
H          3.32486       -5.43367        2.94668
C          2.07001       -3.83259        3.66187
Cl         1.77919       -4.59600        5.18921
H         -0.76683        1.87840       -0.66238
H         -1.12528        0.86819       -2.06363
C         -2.86323        1.75729       -1.16230
C         -3.74945        1.33402       -2.16133
H         -3.42116        0.59069       -2.89262
C         -3.30208        2.71032       -0.23720
H         -2.62385        3.06117        0.54395
C         -5.04920        1.82400       -2.22601
H         -5.75364        1.48341       -2.98646
C         -4.59934        3.21321       -0.28971
H         -4.95361        3.95501        0.42834
C         -5.46017        2.75293       -1.27820
F         -6.71079        3.21081       -1.31611
C         -3.99078       -0.82735        0.13915
C         -4.11006       -1.78897       -0.86507
H         -3.22018       -2.31996       -1.20354
C         -5.12296       -0.16038        0.60883
H         -5.00802        0.58858        1.39329
C         -5.35455       -2.04385       -1.43468
H         -5.45617       -2.78242       -2.23144
C         -6.36634       -0.41813        0.04591
H         -7.25250        0.11880        0.38767
C         -6.47592       -1.34982       -0.98652
Cl        -8.01914       -1.64047       -1.72048
C         -0.79150        1.34923        1.95479
C         -1.88476        1.46655        2.81412
H         -2.54314        0.60959        2.95371
C          0.07896        2.42358        1.76538
H          0.94543        2.30075        1.11285
C         -2.12452        2.67351        3.46326
H         -2.97723        2.78346        4.13515
C         -0.15993        3.63213        2.41396
H          0.51114        4.48055        2.27221
C         -1.26695        3.75432        3.25330
Cl        -1.57479        5.25859        4.05285
