106
Cat803.ts34.5.log	Energy: -2674075.0463968
C          0.95934        1.82725       -2.99860
H          0.84818        2.90464       -3.14840
H          1.93379        1.44658       -3.32554
C         -0.19197        1.00053       -3.13251
H         -1.17218        1.46478       -3.27177
H         -0.10300        0.04695       -3.66635
H          0.01353       -0.03791       -1.85686
Co         0.33360        1.23760       -1.17866
C          3.39120       -0.47547       -1.44978
O          3.29440        1.52028        0.12471
O          1.92237       -0.58474        0.85126
C         -0.80825        0.98279        1.96126
O         -2.65944        1.05648        0.07918
O         -1.25573       -1.09246        0.34193
P         -1.08177        0.54985        0.20204
P          2.13887        0.44142       -0.45158
C          0.12700        2.90490       -0.70373
O         -0.04129        4.00970       -0.42670
H          3.71085        0.24904       -2.21487
H          4.25680       -0.65910       -0.79687
C          2.88981       -1.74176       -2.07084
C          3.11943       -2.97993       -1.46140
H          3.67981       -3.02744       -0.52465
C          2.18251       -1.70994       -3.27765
H          2.02107       -0.74862       -3.77290
C          2.64807       -4.14910       -2.05456
H          2.84090       -5.11287       -1.57684
C          1.69852       -2.87208       -3.88387
C          0.90607       -2.80057       -5.15642
H          1.09609       -3.67030       -5.80223
H         -0.17614       -2.78497       -4.94174
H          1.13909       -1.89055       -5.72771
C          1.94364       -4.09798       -3.25445
H          1.58149       -5.02214       -3.71346
C          2.94840        2.66986        0.78246
C          2.39577        2.61305        2.06036
H          2.24115        1.64017        2.53015
C          3.20008        3.89338        0.14550
C          3.78035        3.90905       -1.23423
H          4.72552        3.34608       -1.27486
H          3.09412        3.42881       -1.94972
H          3.96832        4.93644       -1.57390
C          2.06025        3.79293        2.72079
H          1.62038        3.74871        3.71984
C          2.86558        5.06137        0.83390
H          3.04531        6.02566        0.35117
C          2.29322        5.01990        2.10439
H          2.03107        5.94969        2.61388
C          2.82520       -1.33494        1.55810
C          4.07787       -0.83693        1.92617
H          4.36344        0.16906        1.61967
C          2.41028       -2.62144        1.94844
C          1.08078       -3.16477        1.52613
H          0.73146       -3.93947        2.22313
H          0.32210       -2.37732        1.44317
H          1.15590       -3.62510        0.52646
C          4.94542       -1.62897        2.67592
H          5.92471       -1.23449        2.95665
C          3.30019       -3.38406        2.71081
H          2.98997       -4.38475        3.02474
C          4.55865       -2.90618        3.07169
H          5.23112       -3.52872        3.66592
H          0.21073        0.62087        2.15651
H         -0.77727        2.08347        1.98867
C         -1.78985        0.40083        2.92454
C         -3.00511        1.03846        3.19939
H         -3.22070        2.00726        2.74441
C         -1.53254       -0.84223        3.51006
H         -0.58309       -1.34073        3.29720
C         -3.93778        0.42927        4.03406
H         -4.88451        0.93128        4.24807
C         -2.46442       -1.47501        4.33817
C         -2.18218       -2.84105        4.89164
H         -1.12559       -2.94883        5.17833
H         -2.80270       -3.05928        5.77241
H         -2.39492       -3.61461        4.13481
C         -3.67364       -0.82007        4.59455
H         -4.41634       -1.29386        5.24226
C         -3.25330        1.40814       -1.10674
C         -3.44425        0.46924       -2.11808
H         -3.11792       -0.55995       -1.96213
C         -3.69734        2.73195       -1.24129
C         -3.52391        3.70843       -0.11898
H         -4.00216        3.33651        0.80043
H         -2.46149        3.87542        0.11222
H         -3.97130        4.67907       -0.37191
C         -4.06127        0.85022       -3.30728
H         -4.20783        0.11228       -4.09922
C         -4.31364        3.08637       -2.44516
H         -4.66258        4.11491       -2.57113
C         -4.49069        2.16434       -3.47582
H         -4.97372        2.47215       -4.40584
C         -2.34192       -1.88160        0.07204
C         -3.50650       -1.78831        0.83341
H         -3.56812       -1.04940        1.63130
C         -2.22114       -2.81044       -0.97400
C         -0.98536       -2.85220       -1.81705
H         -0.99109       -2.04006       -2.56291
H         -0.07466       -2.71092       -1.22043
H         -0.90642       -3.80173       -2.36264
C         -4.57688       -2.63466        0.55730
H         -5.48936       -2.55606        1.15259
C         -3.30886       -3.65518       -1.21875
H         -3.22997       -4.38957       -2.02525
C         -4.47934       -3.57346       -0.46754
H         -5.31500       -4.24276       -0.68420
