108
Cat820.ts34.5.log	Energy: -2470980.3356467
C         -0.90070       -0.94652       -3.08647
H         -0.35198       -1.77766       -3.53846
H         -1.98964       -1.07645       -3.11030
C         -0.35729        0.35724       -3.17772
H          0.60402        0.50842       -3.67592
H         -1.04048        1.20134       -3.33070
H         -0.29976        0.98295       -1.59953
Co        -0.08231       -0.45444       -1.30411
C         -2.92525        1.21565       -0.93817
C         -3.24159       -1.61674       -0.45721
C         -2.05073        0.10136        1.60191
C          2.08280       -0.36610        1.29270
C          3.30082       -0.21641       -1.36529
C          1.80779        2.16718       -0.23807
P          1.76006        0.30968       -0.44181
P         -1.97810       -0.24197       -0.22693
C          0.50511       -2.04885       -1.01307
O          0.96159       -3.08662       -0.76495
H         -2.32505        2.10215       -0.68232
H         -2.82886        1.08822       -2.02716
C         -4.36198        1.39977       -0.57058
C         -5.37904        0.90679       -1.39960
H         -5.11400        0.43490       -2.34942
C         -4.73967        2.03007        0.62372
H         -3.97244        2.45112        1.27749
C         -6.72052        0.99409       -1.03842
H         -7.51345        0.60453       -1.67937
C         -6.07593        2.12873        1.00143
H         -6.37358        2.61508        1.93215
C         -7.05259        1.59704        0.16810
F         -8.33351        1.68276        0.52590
H         -3.69509       -1.35367       -1.43231
C         -4.38183       -1.68850        0.56437
H         -4.86745       -0.71212        0.69144
H         -3.97353       -1.96616        1.55075
C         -5.41855       -2.73214        0.15928
H         -6.22295       -2.77107        0.91191
H         -5.89547       -2.41666       -0.78666
C         -4.78524       -4.10571       -0.02236
H         -5.53920       -4.84100       -0.34780
H         -4.40703       -4.46007        0.95401
C         -3.63090       -4.04844       -1.01520
H         -4.03004       -3.81032       -2.01840
H         -3.14479       -5.03367       -1.10292
C         -2.59738       -2.99256       -0.63592
H         -2.08512       -3.28997        0.29618
H         -1.81658       -2.93623       -1.40559
H         -3.11270        0.22579        1.87744
C         -1.30270        1.38533        1.95769
H         -1.72303        2.24980        1.41939
H         -0.26421        1.28700        1.60269
C         -1.30958        1.65705        3.45832
H         -0.73542        2.57251        3.67760
H         -2.34650        1.85521        3.78576
C         -0.75355        0.47556        4.24419
H         -0.80969        0.67242        5.32696
H          0.31916        0.35335        4.00807
C         -1.49010       -0.81194        3.89531
H         -2.53687       -0.73737        4.24184
H         -1.04602       -1.66660        4.43087
C         -1.47869       -1.07678        2.39346
H         -0.44554       -1.25704        2.05569
H         -2.03328       -2.00004        2.17076
H          1.66627        0.37135        1.99349
H          1.42256       -1.24139        1.34421
C          3.45891       -0.78683        1.71202
C          3.94839       -2.04227        1.32191
H          3.30410       -2.71153        0.74452
C          4.28570        0.02228        2.50132
H          3.92341        0.99312        2.84542
C          5.23250       -2.45812        1.66147
H          5.61746       -3.43268        1.35580
C          5.57112       -0.37924        2.85565
H          6.21872        0.24994        3.46888
C          6.03482       -1.61342        2.41843
F          7.26682       -2.00165        2.74610
H          3.40781       -1.25813       -1.00968
C          4.61393        0.50486       -1.05736
H          4.79200        0.55851        0.02457
H          4.55459        1.54419       -1.42336
C          5.78988       -0.19165       -1.73771
H          6.72457        0.34907       -1.51647
H          5.90467       -1.20008       -1.30131
C          5.57988       -0.30732       -3.24220
H          6.42005       -0.84604       -3.70987
H          5.57531        0.70543       -3.68560
C          4.25897       -0.99785       -3.56036
H          4.30613       -2.04796       -3.21929
H          4.09251       -1.03314       -4.64938
C          3.08104       -0.31267       -2.87599
H          2.94890        0.69850       -3.29998
H          2.14748       -0.86086       -3.06795
H          0.78618        2.36146        0.13610
C          1.91349        2.87356       -1.59284
H          1.18446        2.44722       -2.29763
H          2.91206        2.69425       -2.02571
C          1.69627        4.37658       -1.45192
H          1.80509        4.86604       -2.43330
H          0.65667        4.56157       -1.12538
C          2.65853        4.98563       -0.43968
H          2.46669        6.06456       -0.32344
H          3.69179        4.89288       -0.82088
C          2.55690        4.27930        0.90657
H          1.55399        4.45978        1.33507
H          3.28040        4.70337        1.62177
C          2.77648        2.77326        0.77654
H          3.81834        2.57789        0.47831
H          2.63780        2.30352        1.76124
