88
Cat829.ts34.5.log	Energy: -2650642.2015859
C         -0.40341        3.62551       -1.47900
H         -0.10259        3.84082       -2.50779
H         -1.44555        3.87931       -1.25613
C          0.55584        3.72827       -0.43949
H          1.60119        3.94910       -0.67843
H          0.24038        4.13833        0.52638
H          0.21013        2.30517        0.46126
Co         0.18718        1.77806       -0.91237
C         -2.78267        0.78951       -2.19298
O         -1.71640       -0.56953       -0.04016
O         -2.87576        1.75615        0.22981
C          1.58237       -1.28466       -0.65126
O          2.88690        0.76852        0.66760
O          0.74358        0.05995        1.60473
P          1.36053        0.40050        0.10682
P         -1.72457        0.96164       -0.69519
C          0.66706        1.32176       -2.52686
O          0.92267        0.95703       -3.59108
H         -3.10030        1.82413       -2.40670
H         -2.08333        0.50757       -2.99444
C         -3.93877       -0.16414       -2.15258
C         -3.94812       -1.28201       -2.99324
H         -3.12685       -1.42974       -3.69976
C         -5.00692        0.00779       -1.26145
H         -5.01071        0.86838       -0.59041
C         -4.97635       -2.21972       -2.94082
H         -4.98742       -3.09680       -3.59028
C         -6.03557       -0.92417       -1.18906
H         -6.85800       -0.81237       -0.48078
C         -6.00307       -2.03301       -2.02621
F         -6.97981       -2.93661       -1.94852
C         -2.71495       -1.33825        0.49804
C         -2.95126       -2.59170       -0.06738
H         -2.38329       -2.88501       -0.95127
C         -3.41315       -0.93595        1.63805
H         -3.20493        0.03135        2.09341
C         -3.91496       -3.42872        0.48671
H         -4.10848       -4.40189        0.02940
C         -4.37621       -1.78280        2.18274
H         -4.92525       -1.46220        3.07135
C         -4.63722       -3.02619        1.61004
H         -5.39716       -3.68246        2.03923
C         -2.56208        2.55383        1.29487
C         -1.63632        2.16579        2.26629
H         -1.11050        1.21345        2.18083
C         -3.22060        3.78056        1.39355
H         -3.93875        4.05549        0.61858
C         -1.36717        3.02520        3.33142
H         -0.63544        2.72230        4.08412
C         -2.94969        4.62385        2.46747
H         -3.46698        5.58334        2.54206
C         -2.01852        4.25238        3.43845
H         -1.80340        4.91840        4.27674
H          0.98430       -1.97280       -0.03566
H          1.08508       -1.21815       -1.62867
C          2.99216       -1.76575       -0.79741
C          3.72874       -1.44994       -1.94610
H          3.25506       -0.87984       -2.74966
C          3.61733       -2.49315        0.22100
H          3.05874       -2.75278        1.12344
C          5.06086       -1.82810       -2.07362
H          5.64741       -1.56968       -2.95638
C          4.94984       -2.88030        0.10771
H          5.44978       -3.44436        0.89719
C          5.65755       -2.53176       -1.03564
F          6.94086       -2.88037       -1.13836
C          3.98925        1.10660       -0.06624
C          3.92171        1.90754       -1.20726
H          2.95179        2.27875       -1.53827
C          5.22004        0.63738        0.39535
H          5.24168        0.00948        1.28705
C          5.09186        2.20363       -1.90416
H          5.03410        2.82298       -2.80263
C          6.38057        0.94462       -0.30657
H          7.33950        0.55907        0.04788
C          6.32309        1.72171       -1.46433
H          7.23562        1.95366       -2.01754
C          1.16074       -0.96827        2.40982
C          2.33529       -0.85611        3.15522
H          2.93074        0.05233        3.06806
C          0.36277       -2.10989        2.50057
H         -0.56559       -2.15704        1.92829
C          2.72264       -1.91255        3.97657
H          3.64360       -1.83015        4.55883
C          0.76238       -3.15963        3.32579
H          0.13924       -4.05423        3.39510
C          1.94487       -3.06824        4.05960
H          2.25572       -3.89347        4.70398
