84
Cat824.ts34.5.log	Energy: -3615181.7375590
C         -0.55652       -3.33892       -1.76131
H         -0.34235       -4.33546       -1.36424
H         -1.58315       -3.22391       -2.12825
C          0.47991       -2.62996       -2.42369
H          1.49304       -3.04214       -2.45939
H          0.23120       -2.07213       -3.33466
H          0.29494       -1.09274       -1.78325
Co         0.14671       -1.88922       -0.54994
C         -2.17308        0.14508       -1.74371
C         -3.20255       -1.67371        0.33443
C         -1.65227        0.47225        1.16200
C          2.30377       -0.35413        1.69144
C          3.35747       -0.95002       -0.87763
C          1.42078        1.15746       -0.66372
P          1.75304       -0.55180       -0.08617
P         -1.68314       -0.77374       -0.18980
C          0.39222       -2.96765        0.79187
O          0.54365       -3.63782        1.72137
H         -1.32429        0.82797       -1.90981
H         -2.06980       -0.64702       -2.50379
C         -3.47646        0.86092       -1.92830
C         -4.68264        0.15620       -2.04268
H         -4.67741       -0.93424       -1.98702
C         -3.51593        2.25725       -2.05024
H         -2.58494        2.83119       -2.01611
C         -5.89248        0.81852       -2.22817
H         -6.83426        0.27341       -2.31305
C         -4.71734        2.93649       -2.23597
H         -4.75056        4.02313       -2.33245
C         -5.89602        2.20545       -2.31250
F         -7.05089        2.84579       -2.48584
C         -3.22924       -3.07102        0.29631
H         -2.34084       -3.61007       -0.03521
C         -4.33089       -0.99418        0.81656
H         -4.32599        0.09517        0.88936
C         -4.36061       -3.77955        0.69450
H         -4.37736       -4.87017        0.66659
C         -5.46769       -1.68673        1.21670
H         -6.34542       -1.15549        1.58808
C         -5.47789       -3.08037        1.14563
Cl        -6.89006       -3.94919        1.64128
C         -2.12538        1.78405        1.07173
H         -2.57591        2.14493        0.14851
C         -1.10268        0.04475        2.37959
H         -0.73979       -0.98243        2.47468
C         -2.02911        2.65955        2.15215
H         -2.39494        3.68474        2.07256
C         -1.00399        0.90368        3.46846
H         -0.57398        0.56583        4.41290
C         -1.45799        2.21856        3.34318
Cl        -1.31607        3.30475        4.68256
H          1.53213        0.24013        2.20208
H          2.23564       -1.37040        2.10751
C          3.67931        0.20446        1.87954
C          4.77938       -0.66118        1.94944
H          4.61429       -1.74103        1.92265
C          3.92247        1.58291        1.91424
H          3.08781        2.28476        1.87110
C          6.08061       -0.17772        2.02845
H          6.93934       -0.84965        2.07260
C          5.21899        2.08570        1.99484
H          5.41477        3.15907        2.02285
C          6.28485        1.19659        2.04280
F          7.52760        1.67137        2.11093
C          3.70074       -2.30049       -0.99646
H          2.96437       -3.05982       -0.71815
C          4.29927        0.02277       -1.23356
H          4.05912        1.08291       -1.12912
C          4.96244       -2.68119       -1.44479
H          5.23499       -3.73424       -1.53098
C          5.55933       -0.34269       -1.69418
H          6.29811        0.41360       -1.96356
C          5.88568       -1.69554       -1.79076
Cl         7.45872       -2.15556       -2.34526
C          0.94434        2.16303        0.18030
H          0.88492        2.00522        1.25842
C          1.43620        1.40261       -2.04658
H          1.79912        0.63041       -2.73032
C          0.47875        3.37336       -0.33115
H          0.08865        4.14289        0.33631
C          0.97283        2.60187       -2.57269
H          0.97407        2.78015       -3.64915
C          0.47916        3.57944       -1.70626
Cl        -0.17502        5.04638       -2.35418
