104
Cat837.ts34.5.log	Energy: -2375391.9634019
C         -0.70135       -0.50539       -2.78511
H         -0.44314       -1.44599       -3.27942
H         -1.70612       -0.14089       -3.02548
C          0.32849        0.43748       -2.54028
H          1.36211        0.18223       -2.79817
H          0.10500        1.50211       -2.68289
H          0.14936        0.88526       -0.94787
Co        -0.21588       -0.55225       -0.83113
C         -2.26479        1.80625        0.77247
C         -3.58250       -0.06777       -0.91839
C         -2.52814       -0.93074        1.60709
C          2.18321       -2.11680        1.11478
C          2.97350        0.36304       -0.07429
C          1.12941        0.35666        2.13054
P          1.44893       -0.49841        0.51596
P         -2.05555        0.06583        0.11953
C         -0.40355       -2.26056       -0.79266
O         -0.57695       -3.40567       -0.71665
H         -3.30937        1.94912        1.09052
H         -1.63342        1.87863        1.67179
C         -1.86829        2.84192       -0.23271
C         -0.56668        3.35748       -0.25735
H          0.14997        3.04222        0.50334
C         -2.76703        3.28386       -1.21261
H         -3.79490        2.91305       -1.20690
C         -0.16311        4.27003       -1.22803
H          0.85014        4.67392       -1.24586
C         -2.38165        4.19304       -2.19469
H         -3.07891        4.53957       -2.95953
C         -1.07756        4.67159       -2.19324
F         -0.69953        5.54259       -3.12871
H         -3.40485        0.56273       -1.80578
H         -4.43362        0.37800       -0.37793
C         -3.88097       -1.49534       -1.35112
H         -2.95668       -1.94330       -1.74996
H         -4.15667       -2.10503       -0.47116
C         -4.98631       -1.62889       -2.40095
H         -4.68619       -1.01750       -3.27333
C         -5.10114       -3.07708       -2.86193
H         -4.14205       -3.45092       -3.25236
H         -5.85747       -3.18969       -3.65418
H         -5.39581       -3.73172       -2.02461
C         -6.32892       -1.10735       -1.90093
H         -7.11296       -1.22919       -2.66434
H         -6.28830       -0.03932       -1.63865
H         -6.65161       -1.66099       -1.00245
H         -1.69829       -0.81148        2.32391
H         -2.46576       -1.97613        1.26424
C         -3.86018       -0.65058        2.28478
H         -3.87312        0.38738        2.65829
H         -4.68227       -0.71881        1.54975
C         -4.18611       -1.58786        3.45283
H         -3.33495       -1.54732        4.15907
C         -5.43002       -1.10384        4.18915
H         -5.30642       -0.07354        4.55809
H         -5.66233       -1.74562        5.05307
H         -6.30811       -1.11536        3.52177
C         -4.35386       -3.03436        3.00014
H         -4.59366       -3.69080        3.85072
H         -3.44550       -3.43256        2.52420
H         -5.17789       -3.12053        2.27147
H          2.63440       -1.94937        2.10413
H          1.33742       -2.80778        1.24714
C          3.21066       -2.68794        0.18352
C          2.84594       -3.37838       -0.98074
H          1.79256       -3.56904       -1.18871
C          4.57554       -2.49591        0.43485
H          4.88601       -1.97457        1.34461
C          3.80901       -3.84522       -1.87194
H          3.53051       -4.38658       -2.77792
C          5.55115       -2.95644       -0.44514
H          6.61512       -2.81042       -0.25026
C          5.15196       -3.62284       -1.59652
F          6.07752       -4.06634       -2.44782
H          3.28442       -0.16625       -0.98997
H          3.77188        0.19032        0.66404
C          2.80890        1.84680       -0.35868
H          1.98627        1.98786       -1.07628
H          2.50314        2.38084        0.56042
C          4.06994        2.52005       -0.90885
H          4.39132        1.94035       -1.79446
C          3.75877        3.93932       -1.36904
H          2.98123        3.94668       -2.14847
H          4.65121        4.43453       -1.78160
H          3.39937        4.55534       -0.52690
C          5.21567        2.51313        0.09737
H          6.10955        3.00642       -0.31447
H          5.50838        1.49251        0.38585
H          4.93157        3.05462        1.01614
H          0.39025       -0.27250        2.65647
H          0.58725        1.27218        1.85007
C          2.29932        0.67939        3.04552
H          2.85369       -0.24368        3.28678
H          3.01865        1.33353        2.52230
C          1.90163        1.36007        4.35975
H          1.18056        0.69633        4.87359
C          3.11972        1.51884        5.26226
H          3.60125        0.54933        5.46435
H          2.84878        1.96838        6.22997
H          3.87271        2.17276        4.79122
C          1.21964        2.70467        4.12864
H          0.97020        3.19210        5.08355
H          0.28377        2.60713        3.55796
H          1.88221        3.38802        3.57046
