108
Cat835.ts34.5.log	Energy: -2659100.6814120
C          0.11652        0.30111       -3.22300
H          0.11497        1.23668       -3.78984
H          1.04784       -0.26659       -3.34553
C         -1.10369       -0.43100       -3.10114
H         -2.02672        0.01127       -3.49236
H         -1.08230       -1.51915       -3.24343
H         -1.03073       -0.89738       -1.53455
Co        -0.60740        0.50908       -1.36783
C          1.93358       -1.70287       -0.86108
C          2.63420        1.14046       -1.25021
C          1.51626        0.20469        1.39385
C         -2.48006        1.57332        1.37928
C         -3.82176        0.36684       -0.94449
C         -2.37698       -1.14512        1.16820
P         -2.22716        0.31700        0.01966
P          1.32191        0.03594       -0.47340
C         -0.66346        2.23527       -1.60474
O         -0.61678        3.35579       -1.88125
H          1.59229       -2.33151       -0.02697
H          1.33026       -1.99045       -1.73553
C          3.37978       -1.96483       -1.15208
C          3.87176       -1.82626       -2.45790
H          3.18804       -1.54540       -3.26441
C          4.27552       -2.36604       -0.15280
H          3.92039       -2.50209        0.86888
C          5.21378       -2.04745       -2.75952
H          5.59904       -1.93806       -3.77473
C          5.61876       -2.59392       -0.43555
H          6.31669       -2.90051        0.34547
C          6.07544       -2.42402       -1.73666
F          7.36222       -2.63764       -2.01247
H          3.01814        0.55796       -2.09923
H          2.05080        1.96305       -1.68316
C          3.77938        1.67133       -0.44601
C          5.02055        1.02505       -0.46584
H          5.14038        0.12890       -1.07510
C          3.63202        2.85136        0.31453
C          2.35697        3.64266        0.28123
H          1.46043        3.01710        0.39215
H          2.23493        4.16455       -0.68251
H          2.34411        4.40382        1.07393
C          6.09577        1.49671        0.28077
H          7.05077        0.96707        0.25072
C          4.71871        3.30586        1.07069
H          4.60216        4.21392        1.66891
C          5.94116        2.63671        1.06616
H          6.77262        3.01436        1.66605
H          1.72720        1.27312        1.54828
H          0.49637        0.03965        1.76918
C          2.50299       -0.62377        2.16412
C          3.79064       -0.12700        2.40002
H          4.04899        0.86703        2.03581
C          2.15561       -1.88827        2.69093
C          0.76215       -2.43896        2.59281
H          0.36295       -2.43858        1.56858
H          0.06203       -1.84877        3.20804
H          0.72007       -3.47440        2.95658
C          4.74596       -0.87059        3.08475
H          5.74423       -0.45451        3.23815
C          3.13026       -2.62607        3.37447
H          2.86145       -3.60816        3.77314
C          4.42049       -2.13673        3.56411
H          5.16040       -2.73748        4.09832
H         -3.47096        1.38782        1.82276
H         -1.73873        1.30127        2.14678
C         -2.30399        3.00773        0.99814
C         -1.12807        3.68603        1.33780
H         -0.35717        3.16252        1.90837
C         -3.28578        3.70886        0.28521
H         -4.22767        3.21980        0.02636
C         -0.91814        5.00864        0.96302
H          0.00058        5.53886        1.21815
C         -3.09167        5.03044       -0.10309
H         -3.84908        5.57902       -0.66539
C         -1.90187        5.66254        0.23433
F         -1.70722        6.92636       -0.13694
H         -3.91759        1.43170       -1.21165
H         -3.56432       -0.13986       -1.88072
C         -5.09816       -0.17756       -0.37931
C         -5.79604        0.51992        0.61619
H         -5.40290        1.47309        0.97764
C         -5.64414       -1.38248       -0.87714
C         -4.97823       -2.15571       -1.97858
H         -3.94527       -2.43373       -1.72153
H         -4.93922       -1.57141       -2.91268
H         -5.52693       -3.08323       -2.18882
C         -6.99661        0.04501        1.13922
H         -7.51775        0.61280        1.91340
C         -6.85289       -1.84279       -0.34354
H         -7.27405       -2.77483       -0.72997
C         -7.52771       -1.14789        0.65700
H         -8.46946       -1.53500        1.05290
H         -1.43516       -1.11434        1.73874
H         -3.17537       -0.89318        1.87794
C         -2.59402       -2.52488        0.61799
C         -1.68676       -3.07783       -0.29473
H         -0.82028       -2.48538       -0.59147
C         -3.68654       -3.30721        1.05289
C         -4.63001       -2.83137        2.11949
H         -5.09296       -1.86595        1.87024
H         -4.10856       -2.70941        3.08340
H         -5.44197       -3.55496        2.27093
C         -1.87102       -4.34889       -0.83193
H         -1.14854       -4.74870       -1.54735
C         -3.86120       -4.57969        0.49696
H         -4.71438       -5.18044        0.82371
C         -2.97738       -5.09967       -0.44535
H         -3.14479       -6.09601       -0.86127
