96
Cat818.ts34.5.log	Energy: -2465527.9996518
C          1.10384       -4.01848        0.54863
H          1.17089       -4.78698       -0.22637
H          2.07776       -3.73408        0.96330
C         -0.04102       -3.98898        1.38960
H         -0.86035       -4.69105        1.20598
H          0.09108       -3.77087        2.45500
H         -0.45296       -2.31380        1.41561
Co        -0.08977       -2.49624       -0.00689
C          1.93397       -0.50737        1.77950
O          2.99843       -1.49006       -0.41341
O          1.15030        0.30794       -0.78255
C         -1.86591       -0.24386       -1.73307
O         -3.18769       -1.53322        0.14310
O         -1.35612        0.09480        1.01281
P         -1.62662       -1.08028       -0.10959
P          1.47914       -1.06871        0.07734
C         -0.42025       -3.21160       -1.56552
O         -0.62514       -3.67330       -2.60339
H          1.01807       -0.02190        2.15146
H          2.00436       -1.46791        2.31800
C          3.15551        0.32620        2.02885
C          4.44095       -0.17538        1.77719
H          4.54970       -1.19211        1.39922
C          3.04532        1.63180        2.52138
H          2.05657        2.03520        2.75737
C          5.57147        0.61519        1.95753
H          6.57292        0.23575        1.74641
C          4.16593        2.43764        2.70947
H          4.08202        3.45994        3.08246
C          5.41857        1.92044        2.40886
F          6.49659        2.69140        2.55564
C          3.18756       -2.28786       -1.57312
H          3.91160       -3.07493       -1.30197
H          2.23928       -2.78484       -1.83708
C          3.70880       -1.46359       -2.73140
H          3.75684       -2.11481       -3.62208
H          2.96597       -0.68049       -2.96212
C          5.07154       -0.83676       -2.47085
H          5.80937       -1.64108       -2.30066
H          5.02604       -0.26716       -1.52877
C          5.54526        0.06504       -3.59824
H          5.63008       -0.48665       -4.54847
H          4.84057        0.89585       -3.76577
H          6.52953        0.50628       -3.37952
C          1.61466        1.63021       -0.58552
H          0.95077        2.26599       -1.19680
H          1.45971        1.93170        0.46359
C          3.05495        1.85524       -0.99051
H          3.70855        1.22756       -0.36659
H          3.19020        1.51314       -2.02961
C          3.47396        3.31289       -0.86287
H          3.22372        3.67537        0.14955
H          2.88173        3.93042       -1.56182
C          4.95820        3.52263       -1.11656
H          5.56443        2.98986       -0.36704
H          5.25183        3.14493       -2.10916
H          5.23210        4.58733       -1.06910
H         -0.89413        0.22946       -1.93883
H         -1.94102       -1.10249       -2.42090
C         -3.01145        0.70137       -1.94755
C         -4.34133        0.25914       -1.89889
H         -4.54387       -0.79383       -1.70208
C         -2.77873        2.05585       -2.21343
H         -1.74988        2.41846       -2.29063
C         -5.40175        1.14617       -2.05509
H         -6.43912        0.81068       -2.00278
C         -3.82764        2.95830       -2.37355
H         -3.64935        4.01698       -2.57013
C         -5.13128        2.49096       -2.27657
F         -6.14408        3.34932       -2.39862
C         -3.50105       -2.59587        1.03351
H         -4.35527       -3.13093        0.58717
H         -2.64638       -3.28980        1.07129
C         -3.85382       -2.08063        2.41329
H         -3.95320       -2.94528        3.09320
H         -3.00229       -1.48651        2.78902
C         -5.12816       -1.24749        2.43947
H         -5.98055       -1.88749        2.15014
H         -5.05832       -0.47101        1.66114
C         -5.40202       -0.60415        3.78822
H         -5.49823       -1.35993        4.58451
H         -4.58233        0.07297        4.07944
H         -6.33064       -0.01341        3.77565
C         -1.72589        1.46016        0.98126
H         -1.09104        1.94917        1.73972
H         -1.45510        1.90371        0.00988
C         -3.18500        1.71191        1.29149
H         -3.80720        1.23053        0.52147
H         -3.43307        1.22270        2.24785
C         -3.51746        3.19544        1.36169
H         -3.15810        3.69168        0.44328
H         -2.96148        3.65945        2.19601
C         -5.00623        3.45751        1.52228
H         -5.56740        3.08432        0.65106
H         -5.40673        2.95284        2.41637
H         -5.22148        4.53217        1.62020
