100
Cat822.ts34.5.log	Energy: -2749164.4675206
C         -0.51972       -3.33761       -1.72497
H         -0.30531       -4.33652       -1.33340
H         -1.54464       -3.22363       -2.09703
C          0.51942       -2.62327       -2.38165
H          1.53370       -3.03322       -2.41579
H          0.27341       -2.06749       -3.29504
H          0.31519       -1.09451       -1.74422
Co         0.17767       -1.89160       -0.51079
C         -2.09625        0.20940       -1.65289
C         -3.19495       -1.69731        0.31338
C         -1.64789        0.40223        1.27621
C          2.28698       -0.27827        1.71824
C          3.36578       -0.89063       -0.84351
C          1.39083        1.18548       -0.65227
P          1.75718       -0.50940       -0.06106
P         -1.66202       -0.78333       -0.12539
C          0.46304       -2.96911        0.82181
O          0.64216       -3.64175        1.74653
H         -1.22704        0.87474       -1.77458
H         -1.99764       -0.55720       -2.43904
C         -3.37351        0.96786       -1.84684
C         -4.59290        0.30321       -2.03626
H         -4.61687       -0.78832       -2.02651
C         -3.37390        2.36937       -1.90106
H         -2.43105        2.91343       -1.79348
C         -5.77802        1.00622       -2.23313
H         -6.73007        0.49127       -2.37395
C         -4.55023        3.08902       -2.09749
H         -4.55360        4.17982       -2.13787
C         -5.74320        2.39483       -2.25280
F         -6.87533        3.07505       -2.43809
C         -4.35367       -1.03638        0.75949
H         -4.36171        0.05202        0.84662
C         -3.21179       -3.09163        0.27267
H         -2.30500       -3.62064       -0.02369
C         -5.49162       -1.74348        1.10777
H         -6.39383       -1.23488        1.45283
C         -4.34942       -3.81980        0.62402
H         -4.31740       -4.90875        0.58292
C         -5.50285       -3.14526        1.03611
O         -6.65221       -3.74938        1.39322
C         -6.71697       -5.14758        1.36392
H         -5.98525       -5.60727        2.05146
H         -7.72888       -5.42292        1.68718
H         -6.54619       -5.54565        0.34800
C         -1.07663       -0.05717        2.47560
H         -0.68223       -1.07575        2.52555
C         -2.15842        1.69961        1.25467
H         -2.62486        2.09038        0.35181
C         -0.99711        0.75614        3.59425
H         -0.55235        0.40082        4.52583
C         -2.07971        2.53602        2.37042
H         -2.48554        3.54589        2.30384
C         -1.48935        2.07026        3.54910
O         -1.35758        2.79562        4.67585
C         -1.83095        4.11292        4.68881
H         -2.91906        4.16055        4.50670
H         -1.62072        4.51368        5.68841
H         -1.31884        4.74065        3.93780
H          1.48991        0.28826        2.22068
H          2.25837       -1.29370        2.14098
C          3.63633        0.33801        1.90860
C          4.77238       -0.47828        1.99319
H          4.65327       -1.56418        1.96782
C          3.81996        1.72602        1.93331
H          2.95504        2.38887        1.87253
C          6.05058        0.06184        2.08276
H          6.93741       -0.57154        2.13944
C          5.09279        2.28507        2.02240
H          5.24202        3.36615        2.04118
C          6.19515        1.44338        2.08962
F          7.41715        1.97250        2.16858
C          4.30612        0.09043       -1.19738
H          4.05698        1.14819       -1.08821
C          3.72781       -2.23215       -0.97035
H          3.00022       -3.00071       -0.69389
C          5.56054       -0.26408       -1.66411
H          6.30000        0.49117       -1.93652
C          4.99247       -2.60500       -1.42549
H          5.24008       -3.66360       -1.50679
C          5.91801       -1.61622       -1.77792
O          7.16048       -1.86579       -2.23210
C          7.58040       -3.19549       -2.35694
H          6.95601       -3.75830       -3.07312
H          8.61122       -3.16631       -2.73201
H          7.56871       -3.72271       -1.38660
C          0.83436        2.17226        0.17141
H          0.74371        2.01270        1.24722
C          1.44127        1.43856       -2.02848
H          1.86069        0.68457       -2.70032
C          0.33404        3.35357       -0.35894
H         -0.12093        4.10892        0.28404
C          0.94192        2.61734       -2.57707
H          0.99057        2.76525       -3.65598
C          0.36518        3.58035       -1.73894
O         -0.20154        4.72570       -2.17076
C         -0.24257        4.97990       -3.54838
H         -0.81131        4.20336       -4.08982
H         -0.74970        5.94461       -3.67512
H          0.76968        5.04996       -3.98339
