100
Cat830.ts34.5.log	Energy: -2749247.8397025
C          0.10700       -3.36635       -2.36545
H          0.22462       -3.39441       -3.45222
H          0.86552       -3.95478       -1.83631
C         -1.20173       -3.28097       -1.81677
H         -2.06079       -3.14516       -2.47998
H         -1.45244       -3.87688       -0.93195
H         -1.00924       -2.15981       -0.61997
Co        -0.22633       -1.49711       -1.69208
C          3.10942       -1.96420       -1.31346
O          1.93835        0.42018       -0.52096
O          1.76791       -1.66828        0.96362
C         -1.03551        0.79561        0.62872
O         -1.38894        1.38630       -2.04652
O         -3.05357       -0.13030       -0.91925
P         -1.39762        0.09591       -1.03344
P          1.56610       -1.19870       -0.65260
C          0.03743       -0.83607       -3.29382
O          0.26041       -0.41568       -4.33881
H          2.96107       -3.03792       -1.10345
H          3.01366       -1.85481       -2.40467
C          4.46221       -1.49875       -0.85822
C          5.38671       -1.02702       -1.79638
H          5.12245       -1.02619       -2.85729
C          4.83143       -1.50139        0.49399
H          4.12348       -1.86208        1.24153
C          6.63011       -0.53415       -1.40687
H          7.34913       -0.15194       -2.13355
C          6.06240       -1.00071        0.90056
H          6.34368       -0.96890        1.95444
C          6.94266       -0.51045       -0.05574
F          8.11037        0.00440        0.33894
C          2.95355        1.04644        0.15746
C          3.95897        1.67510       -0.57624
H          3.92504        1.62678       -1.66553
C          2.95824        1.12292        1.54786
H          2.15866        0.64874        2.11438
C          4.99934        2.31251        0.08577
H          5.80015        2.77279       -0.49964
C          4.00912        1.76841        2.19792
H          4.01695        1.80264        3.29088
C          5.05845        2.35402        1.48555
C          6.23727        2.97236        2.17833
H          7.14716        2.37794        1.99230
H          6.08636        3.02650        3.26562
H          6.43571        3.99138        1.81126
C          0.78235       -2.26422        1.69076
C          0.27530       -1.61954        2.82190
H          0.66970       -0.64154        3.10265
C          0.28762       -3.52084        1.34242
H          0.69582       -4.03510        0.47080
C         -0.72254       -2.22384        3.58059
H         -1.10916       -1.70257        4.46078
C         -0.71198       -4.11455        2.11010
H         -1.08948       -5.09898        1.82049
C         -1.24098       -3.47979        3.23832
C         -2.32040       -4.11616        4.06561
H         -3.21754       -3.47842        4.11428
H         -1.98636       -4.28068        5.10237
H         -2.62071       -5.09028        3.65439
H         -0.99029       -0.10615        1.26158
H          0.00041        1.15571        0.54140
C         -1.91915        1.84306        1.23669
C         -1.42250        3.13502        1.44455
H         -0.39260        3.36450        1.16225
C         -3.23764        1.56872        1.62163
H         -3.64709        0.56612        1.48798
C         -2.22225        4.14155        1.97411
H         -1.84385        5.15486        2.11818
C         -4.05212        2.56536        2.15208
H         -5.08543        2.36430        2.44048
C         -3.53654        3.84556        2.30764
F         -4.32068        4.81493        2.78685
C         -1.81004        2.66575       -1.77739
C         -0.86579        3.68641       -1.80378
H          0.17435        3.43704       -2.02299
C         -3.15088        2.94915       -1.51661
H         -3.87618        2.13552       -1.50804
C         -1.26097        4.99352       -1.52335
H         -0.51252        5.79078       -1.52924
C         -3.52384        4.25549       -1.22886
H         -4.57022        4.46895       -0.99355
C         -2.58899        5.29975       -1.21385
C         -3.01373        6.69088       -0.84459
H         -2.17014        7.39457       -0.87815
H         -3.43361        6.71197        0.17463
H         -3.79548        7.06853       -1.52265
C         -3.65803       -1.32389       -0.66214
C         -4.60593       -1.79357       -1.57315
H         -4.80932       -1.20161       -2.46742
C         -3.37489       -2.06538        0.48519
H         -2.63011       -1.71795        1.20421
C         -5.25701       -2.99835       -1.33743
H         -5.99372       -3.35658       -2.06213
C         -4.03111       -3.27627        0.70171
H         -3.79029       -3.85233        1.59817
C         -4.98050       -3.76732       -0.19798
C         -5.69215       -5.06653        0.04561
H         -6.76282       -4.90387        0.25092
H         -5.26672       -5.60223        0.90594
H         -5.62904       -5.73004       -0.83092
