84
Cat823.ts34.5.log	Energy: -2710871.5594532
C         -0.67021       -2.84718       -2.14033
H         -0.26923       -3.83434       -1.89311
H         -1.74616       -2.85601       -2.35236
C          0.16321       -1.92669       -2.82500
H          1.20426       -2.18775       -3.04289
H         -0.28412       -1.29953       -3.60488
H          0.01520       -0.47141       -1.95538
Co        -0.01631       -1.45134       -0.84145
C         -2.92659       -0.07571       -1.84410
C         -3.04887       -1.23776        0.75612
C         -1.66626        1.23344        0.43098
C          2.13989       -0.37737        1.59185
C          3.27755       -0.86634       -0.99813
C          1.71985        1.47232       -0.64006
P          1.70076       -0.31693       -0.23315
P         -1.83705       -0.41688       -0.35195
C          0.22228       -2.66594        0.36622
O          0.36967       -3.45900        1.19478
H         -2.44707        0.74062       -2.40486
H         -2.81341       -0.97693       -2.46498
C         -4.37279        0.18566       -1.56812
C         -5.27498       -0.88576       -1.51327
H         -4.91898       -1.89700       -1.72565
C         -4.85778        1.46791       -1.28186
H         -4.18360        2.32536       -1.31809
C         -6.60918       -0.69730       -1.17025
H         -7.31075       -1.53163       -1.11920
C         -6.19104        1.67633       -0.93636
H         -6.57388        2.67361       -0.71226
C         -7.05077        0.58723       -0.87837
F         -8.32589        0.77926       -0.54191
C         -4.02239       -0.53395        1.47961
H         -4.03465        0.55750        1.46138
C         -3.07475       -2.63624        0.77953
H         -2.32094       -3.19387        0.22009
C         -4.99380       -1.20641        2.21204
H         -5.75906       -0.67005        2.77576
C         -4.04736       -3.32468        1.50061
H         -4.07597       -4.41534        1.52838
C         -4.99531       -2.59718        2.20851
F         -5.92688       -3.24572        2.90262
C         -1.39276        1.30051        1.80561
H         -1.36788        0.38088        2.39679
C         -1.67098        2.42685       -0.30014
H         -1.83323        2.41504       -1.37899
C         -1.16227        2.51890        2.43781
H         -0.95588        2.57827        3.50823
C         -1.44967        3.65467        0.31768
H         -1.44545        4.58653       -0.25020
C         -1.19806        3.68476        1.68176
F         -0.95232        4.85387        2.27289
H          1.52355        0.38323        2.09418
H          1.75875       -1.35014        1.93103
C          3.59735       -0.26070        1.91653
C          4.39452       -1.41437        1.89637
H          3.92688       -2.38336        1.70535
C          4.22393        0.96454        2.17029
H          3.63624        1.88309        2.20460
C          5.76888       -1.35316        2.09407
H          6.39136       -2.24916        2.06954
C          5.59984        1.04564        2.37534
H          6.09238        1.99915        2.57396
C          6.35828       -0.11582        2.32445
F          7.67579       -0.04407        2.50884
C          4.38159       -0.01770       -1.15447
H          4.29831        1.04016       -0.89723
C          3.41087       -2.21862       -1.32894
H          2.54602       -2.87707       -1.21029
C          5.59668       -0.50994       -1.61681
H          6.46869        0.13551       -1.73559
C          4.62305       -2.72783       -1.78804
H          4.74368       -3.78138       -2.04647
C          5.70200       -1.86309       -1.92217
F          6.86443       -2.33884       -2.35992
C          1.68322        1.82165       -1.99932
H          1.67395        1.03553       -2.75931
C          1.72318        2.49917        0.30562
H          1.70766        2.27199        1.37091
C          1.66406        3.15138       -2.40200
H          1.63919        3.43067       -3.45691
C          1.70622        3.83879       -0.07941
H          1.68805        4.64257        0.65874
C          1.67737        4.14785       -1.43041
F          1.64327        5.42364       -1.80846
