100
Cat839.ts34.5.log	Energy: -2749255.5979597
C         -0.85846        3.77978        0.81308
H         -0.99574        4.54127        0.04135
H         -1.76274        3.58610        1.39925
C          0.41237        3.62209        1.42138
H          1.27346        4.19168        1.05967
H          0.46666        3.42049        2.49690
H          0.59591        1.94040        1.42337
Co         0.03906        2.13367        0.06682
C         -1.63280       -0.08023        2.03773
O         -3.10429        1.27999        0.35094
O         -1.48586       -0.49142       -0.69976
C          1.68473        0.02239       -1.97418
O          3.15846        1.32812       -0.20797
O          1.54086       -0.46645        0.75356
P          1.57801        0.80376       -0.31887
P         -1.51439        0.76281        0.40589
C         -0.04988        2.77644       -1.55628
O         -0.11974        3.18257       -2.63245
H         -0.64038       -0.54136        2.15927
H         -1.67268        0.76584        2.74456
C         -2.74253       -1.05703        2.27710
C         -4.05944       -0.62119        2.46927
H         -4.27298        0.44867        2.48379
C         -2.49332       -2.43386        2.26577
H         -1.47088       -2.79413        2.13370
C         -5.10448       -1.53033        2.59905
H         -6.13650       -1.20138        2.73324
C         -3.52623       -3.35738        2.38834
H         -3.34152       -4.43181        2.35099
C         -4.82340       -2.88873        2.54102
F         -5.82934       -3.76569        2.61946
C         -3.55091        2.15493       -0.60220
C         -3.20003        2.01491       -1.94280
H         -2.54993        1.19099       -2.24394
C         -4.39558        3.18680       -0.19124
H         -4.65769        3.27197        0.86486
C         -3.66228        2.92906       -2.89701
C         -3.22231        2.79817       -4.32505
H         -3.38982        1.77790       -4.70328
H         -3.75758        3.49942       -4.98003
H         -2.14330        3.00456       -4.40929
C         -4.87404        4.08343       -1.14001
H         -5.53644        4.89499       -0.82923
C         -4.50611        3.96253       -2.48054
H         -4.87889        4.68147       -3.21431
C         -2.25432       -1.62117       -0.81497
C         -3.64932       -1.58428       -0.78494
H         -4.15811       -0.63431       -0.62437
C         -1.58234       -2.82311       -1.02971
H         -0.49214       -2.82141       -1.06474
C         -4.38821       -2.76170       -0.92059
C         -5.88624       -2.73828       -0.83033
H         -6.22663       -3.24387        0.08738
H         -6.27180       -1.70981       -0.80938
H         -6.34679       -3.26198       -1.68215
C         -2.31754       -3.99621       -1.18354
H         -1.79510       -4.94149       -1.35059
C         -3.70702       -3.97048       -1.12069
H         -4.27599       -4.89726       -1.23104
H          0.69082       -0.43431       -2.10327
H          1.72560        0.88472       -2.65990
C          2.79079       -0.95158       -2.24344
C          4.11029       -0.51452       -2.41184
H          4.32984        0.55388       -2.37824
C          2.53177       -2.32543       -2.29421
H          1.50641       -2.68391       -2.18153
C          5.15003       -1.42333       -2.58043
H          6.18431       -1.09524       -2.69809
C          3.55956       -3.24850       -2.45667
H          3.36828       -4.32235       -2.46996
C          4.85986       -2.78117       -2.58534
F          5.86023       -3.65984       -2.70166
C          3.53581        2.22959        0.75295
C          3.38049        1.93784        2.10629
H          2.94629        0.97923        2.39898
C          4.08748        3.44187        0.34140
H          4.19086        3.64430       -0.72582
C          3.76075        2.86912        3.07951
C          3.55495        2.55994        4.53387
H          4.04066        3.30563        5.17821
H          2.48162        2.54827        4.78520
H          3.95682        1.56858        4.79302
C          4.47817        4.36446        1.30648
H          4.91139        5.31868        0.99736
C          4.31247        4.08481        2.66314
H          4.61714        4.82121        3.41093
C          2.29034       -1.61432        0.81811
C          3.68558       -1.60016        0.78722
H          4.21085       -0.65416        0.65707
C          1.59580       -2.81038        0.98434
H          0.50589       -2.78920        1.01610
C          4.40337       -2.79512        0.87782
C          5.90156       -2.79601        0.78779
H          6.23294       -3.26996       -0.14981
H          6.30676       -1.77509        0.80821
H          6.35187       -3.36262        1.61729
C          2.30992       -4.00146        1.09210
H          1.77037       -4.94309        1.22039
C          3.69981       -3.99781        1.03179
H          4.25178       -4.93832        1.10631
